/*--------------------------------*- C++ -*----------------------------------*\
  =========                 |
  \\      /  F ield         | OpenFOAM: The Open Source CFD Toolbox
   \\    /   O peration     | Website:  https://openfoam.org
    \\  /    A nd           | Version:  7
     \\/     M anipulation  |
\*---------------------------------------------------------------------------*/
FoamFile
{
    version         2.0;
    format          ascii;
    class           dictionary;
    location        "constant";
    object          chemistryProperties;
}

chemistry       on;

CanteraMechanismFile "ES80_H2-7-16.yaml";

transportModel  "Mix"; //"UnityLewis";

odeCoeffs
{
    "relTol"        1e-15;
    "absTol"        1e-24;
}

inertSpecie     "N2";

zeroDReactor
{
    constantProperty "pressure";
}

torch           on;
GPU             on;
torchModel1     "new_ESH2sub1.pt";
torchModel2     "new_ESH2sub2.pt";
torchModel3     "new_ESH2sub3.pt";

torchParameters1
{
    Tact            700;
    Qdotact         3e+07;
    coresPerGPU     4;
}

torchParameters2
{
    Tact            2000;
    Qdotact         3e+07;
}

torchParameters3
{
    Tact            2000;
    Qdotact         7e+08;
}

loadbalancing
{
    active          false;
    //log           true;
}


// ************************************************************************* //
