/*--------------------------------*- C++ -*----------------------------------*\
  =========                 |
  \\      /  F ield         | OpenFOAM: The Open Source CFD Toolbox
   \\    /   O peration     | Website:  https://openfoam.org
    \\  /    A nd           | Version:  7
     \\/     M anipulation  |
\*---------------------------------------------------------------------------*/
FoamFile
{
    version     2.0;
    format      ascii;
    class       dictionary;
    location    "system";
    object      setFieldsDict;
}
// * * * * * * * * * * * * * * * * * * * * * * * * * * * * * * * * * * * * * //

defaultFieldValues
(
    volScalarFieldValue T 300
    volScalarFieldValue CH4  0.055167
    volScalarFieldValue O2   0.22006
    volScalarFieldValue N2   0.724773
);

regions
(
    cylinderToCell
    {
        p1 (0.015707963 0.015707963 0);
		p2 (0.015707963 0.015707963 0.031415926);
		radius 0.0031415926;
        fieldValues
        (
            volScalarFieldValue     T       2230.9
            volScalarFieldValue     H2      0.000255
            volScalarFieldValue     H       0.000015
            volScalarFieldValue     O       0.000139
            volScalarFieldValue     O2      0.006197
            volScalarFieldValue     OH      0.001885
            volScalarFieldValue     H2      0.120486
            volScalarFieldValue     HO      0.000001
            volScalarFieldValue     CH      0
            volScalarFieldValue     CH2(S)  0
            volScalarFieldValue     CH3     0
            volScalarFieldValue     CH4     0
            volScalarFieldValue     CO      0.008899
            volScalarFieldValue     CO2     0.13735
            volScalarFieldValue     HCO     0
            volScalarFieldValue     CH2O    0
            volScalarFieldValue     CH3O    0
            volScalarFieldValue     C2H4    0
            volScalarFieldValue     C2H5    0
            volScalarFieldValue     C2H6    0
            volScalarFieldValue     N2      0.724773
        );
    }
);

// ************************************************************************* //
