/*--------------------------------*- C++ -*----------------------------------*\
  =========                 |
  \\      /  F ield         | OpenFOAM: The Open Source CFD Toolbox
   \\    /   O peration     | Website:  https://openfoam.org
    \\  /    A nd           | Version:  7
     \\/     M anipulation  |
\*---------------------------------------------------------------------------*/
FoamFile
{
    version     2.0;
    format      ascii;
    class       dictionary;
    object      blockMeshDict;
}
// * * * * * * * * * * * * * * * * * * * * * * * * * * * * * * * * * * * * * //

convertToMeters 0.01;

vertices
(
    (-10 0 0)
    (110 0 0)
    (110 0.8 0)
    (-10 0.8 0)
    (-10 0 0.8)
    (110 0 0.8)
    (110 0.8 0.8)
    (-10 0.8 0.8)
);

blocks
(
    hex (0 1 2 3 4 5 6 7) (240 1 1) simpleGrading (1 1 1)
);

edges
(
);

boundary
(
    Left
    {
        type patch;
        faces
        (
            (0 4 7 3)
        );
    }
    Right
    {
        type patch;
        faces
        (
            (1 2 6 5)
        );
    }
    empty
    {
        type empty;
        faces
        (
            (0 1 5 4)
            (5 6 7 4)
            (3 7 6 2)
            (0 3 2 1)
        );
    }
);

mergePatchPairs
(
);

// ************************************************************************* //
