/*--------------------------------*- C++ -*----------------------------------*\
  =========                 |
  \\      /  F ield         | OpenFOAM: The Open Source CFD Toolbox
   \\    /   O peration     | Website:  https://openfoam.org
    \\  /    A nd           | Version:  
     \\/     M anipulation  |
\*---------------------------------------------------------------------------*/
FoamFile
{
    version     .0;
    format      ascii;
    class       vectorField;
    location    "constant";
    object      cloudPositions;
}
// * * * * * * * * * * * * * * * * * * * * * * * * * * * * * * * * * * * * * //
80000
(
  (0.600005 0.005 0.005)
  (0.600015 0.005 0.005)
  (0.600025 0.005 0.005)
  (0.600035 0.005 0.005)
  (0.600045 0.005 0.005)
  (0.600055 0.005 0.005)
  (0.600065 0.005 0.005)
  (0.600075 0.005 0.005)
  (0.600085 0.005 0.005)
  (0.600095 0.005 0.005)
  (0.600105 0.005 0.005)
  (0.600115 0.005 0.005)
  (0.600125 0.005 0.005)
  (0.600135 0.005 0.005)
  (0.600145 0.005 0.005)
  (0.600155 0.005 0.005)
  (0.600165 0.005 0.005)
  (0.600175 0.005 0.005)
  (0.600185 0.005 0.005)
  (0.600195 0.005 0.005)
  (0.600205 0.005 0.005)
  (0.600215 0.005 0.005)
  (0.600225 0.005 0.005)
  (0.600235 0.005 0.005)
  (0.600245 0.005 0.005)
  (0.600255 0.005 0.005)
  (0.600265 0.005 0.005)
  (0.600275 0.005 0.005)
  (0.600285 0.005 0.005)
  (0.600295 0.005 0.005)
  (0.600305 0.005 0.005)
  (0.600315 0.005 0.005)
  (0.600325 0.005 0.005)
  (0.600335 0.005 0.005)
  (0.600345 0.005 0.005)
  (0.600355 0.005 0.005)
  (0.600365 0.005 0.005)
  (0.600375 0.005 0.005)
  (0.600385 0.005 0.005)
  (0.600395 0.005 0.005)
  (0.600405 0.005 0.005)
  (0.600415 0.005 0.005)
  (0.600425 0.005 0.005)
  (0.600435 0.005 0.005)
  (0.600445 0.005 0.005)
  (0.600455 0.005 0.005)
  (0.600465 0.005 0.005)
  (0.600475 0.005 0.005)
  (0.600485 0.005 0.005)
  (0.600495 0.005 0.005)
  (0.600505 0.005 0.005)
  (0.600515 0.005 0.005)
  (0.600525 0.005 0.005)
  (0.600535 0.005 0.005)
  (0.600545 0.005 0.005)
  (0.600555 0.005 0.005)
  (0.600565 0.005 0.005)
  (0.600575 0.005 0.005)
  (0.600585 0.005 0.005)
  (0.600595 0.005 0.005)
  (0.600605 0.005 0.005)
  (0.600615 0.005 0.005)
  (0.600625 0.005 0.005)
  (0.600635 0.005 0.005)
  (0.600645 0.005 0.005)
  (0.600655 0.005 0.005)
  (0.600665 0.005 0.005)
  (0.600675 0.005 0.005)
  (0.600685 0.005 0.005)
  (0.600695 0.005 0.005)
  (0.600705 0.005 0.005)
  (0.600715 0.005 0.005)
  (0.600725 0.005 0.005)
  (0.600735 0.005 0.005)
  (0.600745 0.005 0.005)
  (0.600755 0.005 0.005)
  (0.600765 0.005 0.005)
  (0.600775 0.005 0.005)
  (0.600785 0.005 0.005)
  (0.600795 0.005 0.005)
  (0.600805 0.005 0.005)
  (0.600815 0.005 0.005)
  (0.600825 0.005 0.005)
  (0.600835 0.005 0.005)
  (0.600845 0.005 0.005)
  (0.600855 0.005 0.005)
  (0.600865 0.005 0.005)
  (0.600875 0.005 0.005)
  (0.600885 0.005 0.005)
  (0.600895 0.005 0.005)
  (0.600905 0.005 0.005)
  (0.600915 0.005 0.005)
  (0.600925 0.005 0.005)
  (0.600935 0.005 0.005)
  (0.600945 0.005 0.005)
  (0.600955 0.005 0.005)
  (0.600965 0.005 0.005)
  (0.600975 0.005 0.005)
  (0.600985 0.005 0.005)
  (0.600995 0.005 0.005)
  (0.601005 0.005 0.005)
  (0.601015 0.005 0.005)
  (0.601025 0.005 0.005)
  (0.601035 0.005 0.005)
  (0.601045 0.005 0.005)
  (0.601055 0.005 0.005)
  (0.601065 0.005 0.005)
  (0.601075 0.005 0.005)
  (0.601085 0.005 0.005)
  (0.601095 0.005 0.005)
  (0.601105 0.005 0.005)
  (0.601115 0.005 0.005)
  (0.601125 0.005 0.005)
  (0.601135 0.005 0.005)
  (0.601145 0.005 0.005)
  (0.601155 0.005 0.005)
  (0.601165 0.005 0.005)
  (0.601175 0.005 0.005)
  (0.601185 0.005 0.005)
  (0.601195 0.005 0.005)
  (0.601205 0.005 0.005)
  (0.601215 0.005 0.005)
  (0.601225 0.005 0.005)
  (0.601235 0.005 0.005)
  (0.601245 0.005 0.005)
  (0.601255 0.005 0.005)
  (0.601265 0.005 0.005)
  (0.601275 0.005 0.005)
  (0.601285 0.005 0.005)
  (0.601295 0.005 0.005)
  (0.601305 0.005 0.005)
  (0.601315 0.005 0.005)
  (0.601325 0.005 0.005)
  (0.601335 0.005 0.005)
  (0.601345 0.005 0.005)
  (0.601355 0.005 0.005)
  (0.601365 0.005 0.005)
  (0.601375 0.005 0.005)
  (0.601385 0.005 0.005)
  (0.601395 0.005 0.005)
  (0.601405 0.005 0.005)
  (0.601415 0.005 0.005)
  (0.601425 0.005 0.005)
  (0.601435 0.005 0.005)
  (0.601445 0.005 0.005)
  (0.601455 0.005 0.005)
  (0.601465 0.005 0.005)
  (0.601475 0.005 0.005)
  (0.601485 0.005 0.005)
  (0.601495 0.005 0.005)
  (0.601505 0.005 0.005)
  (0.601515 0.005 0.005)
  (0.601525 0.005 0.005)
  (0.601535 0.005 0.005)
  (0.601545 0.005 0.005)
  (0.601555 0.005 0.005)
  (0.601565 0.005 0.005)
  (0.601575 0.005 0.005)
  (0.601585 0.005 0.005)
  (0.601595 0.005 0.005)
  (0.601605 0.005 0.005)
  (0.601615 0.005 0.005)
  (0.601625 0.005 0.005)
  (0.601635 0.005 0.005)
  (0.601645 0.005 0.005)
  (0.601655 0.005 0.005)
  (0.601665 0.005 0.005)
  (0.601675 0.005 0.005)
  (0.601685 0.005 0.005)
  (0.601695 0.005 0.005)
  (0.601705 0.005 0.005)
  (0.601715 0.005 0.005)
  (0.601725 0.005 0.005)
  (0.601735 0.005 0.005)
  (0.601745 0.005 0.005)
  (0.601755 0.005 0.005)
  (0.601765 0.005 0.005)
  (0.601775 0.005 0.005)
  (0.601785 0.005 0.005)
  (0.601795 0.005 0.005)
  (0.601805 0.005 0.005)
  (0.601815 0.005 0.005)
  (0.601825 0.005 0.005)
  (0.601835 0.005 0.005)
  (0.601845 0.005 0.005)
  (0.601855 0.005 0.005)
  (0.601865 0.005 0.005)
  (0.601875 0.005 0.005)
  (0.601885 0.005 0.005)
  (0.601895 0.005 0.005)
  (0.601905 0.005 0.005)
  (0.601915 0.005 0.005)
  (0.601925 0.005 0.005)
  (0.601935 0.005 0.005)
  (0.601945 0.005 0.005)
  (0.601955 0.005 0.005)
  (0.601965 0.005 0.005)
  (0.601975 0.005 0.005)
  (0.601985 0.005 0.005)
  (0.601995 0.005 0.005)
  (0.602005 0.005 0.005)
  (0.602015 0.005 0.005)
  (0.602025 0.005 0.005)
  (0.602035 0.005 0.005)
  (0.602045 0.005 0.005)
  (0.602055 0.005 0.005)
  (0.602065 0.005 0.005)
  (0.602075 0.005 0.005)
  (0.602085 0.005 0.005)
  (0.602095 0.005 0.005)
  (0.602105 0.005 0.005)
  (0.602115 0.005 0.005)
  (0.602125 0.005 0.005)
  (0.602135 0.005 0.005)
  (0.602145 0.005 0.005)
  (0.602155 0.005 0.005)
  (0.602165 0.005 0.005)
  (0.602175 0.005 0.005)
  (0.602185 0.005 0.005)
  (0.602195 0.005 0.005)
  (0.602205 0.005 0.005)
  (0.602215 0.005 0.005)
  (0.602225 0.005 0.005)
  (0.602235 0.005 0.005)
  (0.602245 0.005 0.005)
  (0.602255 0.005 0.005)
  (0.602265 0.005 0.005)
  (0.602275 0.005 0.005)
  (0.602285 0.005 0.005)
  (0.602295 0.005 0.005)
  (0.602305 0.005 0.005)
  (0.602315 0.005 0.005)
  (0.602325 0.005 0.005)
  (0.602335 0.005 0.005)
  (0.602345 0.005 0.005)
  (0.602355 0.005 0.005)
  (0.602365 0.005 0.005)
  (0.602375 0.005 0.005)
  (0.602385 0.005 0.005)
  (0.602395 0.005 0.005)
  (0.602405 0.005 0.005)
  (0.602415 0.005 0.005)
  (0.602425 0.005 0.005)
  (0.602435 0.005 0.005)
  (0.602445 0.005 0.005)
  (0.602455 0.005 0.005)
  (0.602465 0.005 0.005)
  (0.602475 0.005 0.005)
  (0.602485 0.005 0.005)
  (0.602495 0.005 0.005)
  (0.602505 0.005 0.005)
  (0.602515 0.005 0.005)
  (0.602525 0.005 0.005)
  (0.602535 0.005 0.005)
  (0.602545 0.005 0.005)
  (0.602555 0.005 0.005)
  (0.602565 0.005 0.005)
  (0.602575 0.005 0.005)
  (0.602585 0.005 0.005)
  (0.602595 0.005 0.005)
  (0.602605 0.005 0.005)
  (0.602615 0.005 0.005)
  (0.602625 0.005 0.005)
  (0.602635 0.005 0.005)
  (0.602645 0.005 0.005)
  (0.602655 0.005 0.005)
  (0.602665 0.005 0.005)
  (0.602675 0.005 0.005)
  (0.602685 0.005 0.005)
  (0.602695 0.005 0.005)
  (0.602705 0.005 0.005)
  (0.602715 0.005 0.005)
  (0.602725 0.005 0.005)
  (0.602735 0.005 0.005)
  (0.602745 0.005 0.005)
  (0.602755 0.005 0.005)
  (0.602765 0.005 0.005)
  (0.602775 0.005 0.005)
  (0.602785 0.005 0.005)
  (0.602795 0.005 0.005)
  (0.602805 0.005 0.005)
  (0.602815 0.005 0.005)
  (0.602825 0.005 0.005)
  (0.602835 0.005 0.005)
  (0.602845 0.005 0.005)
  (0.602855 0.005 0.005)
  (0.602865 0.005 0.005)
  (0.602875 0.005 0.005)
  (0.602885 0.005 0.005)
  (0.602895 0.005 0.005)
  (0.602905 0.005 0.005)
  (0.602915 0.005 0.005)
  (0.602925 0.005 0.005)
  (0.602935 0.005 0.005)
  (0.602945 0.005 0.005)
  (0.602955 0.005 0.005)
  (0.602965 0.005 0.005)
  (0.602975 0.005 0.005)
  (0.602985 0.005 0.005)
  (0.602995 0.005 0.005)
  (0.603005 0.005 0.005)
  (0.603015 0.005 0.005)
  (0.603025 0.005 0.005)
  (0.603035 0.005 0.005)
  (0.603045 0.005 0.005)
  (0.603055 0.005 0.005)
  (0.603065 0.005 0.005)
  (0.603075 0.005 0.005)
  (0.603085 0.005 0.005)
  (0.603095 0.005 0.005)
  (0.603105 0.005 0.005)
  (0.603115 0.005 0.005)
  (0.603125 0.005 0.005)
  (0.603135 0.005 0.005)
  (0.603145 0.005 0.005)
  (0.603155 0.005 0.005)
  (0.603165 0.005 0.005)
  (0.603175 0.005 0.005)
  (0.603185 0.005 0.005)
  (0.603195 0.005 0.005)
  (0.603205 0.005 0.005)
  (0.603215 0.005 0.005)
  (0.603225 0.005 0.005)
  (0.603235 0.005 0.005)
  (0.603245 0.005 0.005)
  (0.603255 0.005 0.005)
  (0.603265 0.005 0.005)
  (0.603275 0.005 0.005)
  (0.603285 0.005 0.005)
  (0.603295 0.005 0.005)
  (0.603305 0.005 0.005)
  (0.603315 0.005 0.005)
  (0.603325 0.005 0.005)
  (0.603335 0.005 0.005)
  (0.603345 0.005 0.005)
  (0.603355 0.005 0.005)
  (0.603365 0.005 0.005)
  (0.603375 0.005 0.005)
  (0.603385 0.005 0.005)
  (0.603395 0.005 0.005)
  (0.603405 0.005 0.005)
  (0.603415 0.005 0.005)
  (0.603425 0.005 0.005)
  (0.603435 0.005 0.005)
  (0.603445 0.005 0.005)
  (0.603455 0.005 0.005)
  (0.603465 0.005 0.005)
  (0.603475 0.005 0.005)
  (0.603485 0.005 0.005)
  (0.603495 0.005 0.005)
  (0.603505 0.005 0.005)
  (0.603515 0.005 0.005)
  (0.603525 0.005 0.005)
  (0.603535 0.005 0.005)
  (0.603545 0.005 0.005)
  (0.603555 0.005 0.005)
  (0.603565 0.005 0.005)
  (0.603575 0.005 0.005)
  (0.603585 0.005 0.005)
  (0.603595 0.005 0.005)
  (0.603605 0.005 0.005)
  (0.603615 0.005 0.005)
  (0.603625 0.005 0.005)
  (0.603635 0.005 0.005)
  (0.603645 0.005 0.005)
  (0.603655 0.005 0.005)
  (0.603665 0.005 0.005)
  (0.603675 0.005 0.005)
  (0.603685 0.005 0.005)
  (0.603695 0.005 0.005)
  (0.603705 0.005 0.005)
  (0.603715 0.005 0.005)
  (0.603725 0.005 0.005)
  (0.603735 0.005 0.005)
  (0.603745 0.005 0.005)
  (0.603755 0.005 0.005)
  (0.603765 0.005 0.005)
  (0.603775 0.005 0.005)
  (0.603785 0.005 0.005)
  (0.603795 0.005 0.005)
  (0.603805 0.005 0.005)
  (0.603815 0.005 0.005)
  (0.603825 0.005 0.005)
  (0.603835 0.005 0.005)
  (0.603845 0.005 0.005)
  (0.603855 0.005 0.005)
  (0.603865 0.005 0.005)
  (0.603875 0.005 0.005)
  (0.603885 0.005 0.005)
  (0.603895 0.005 0.005)
  (0.603905 0.005 0.005)
  (0.603915 0.005 0.005)
  (0.603925 0.005 0.005)
  (0.603935 0.005 0.005)
  (0.603945 0.005 0.005)
  (0.603955 0.005 0.005)
  (0.603965 0.005 0.005)
  (0.603975 0.005 0.005)
  (0.603985 0.005 0.005)
  (0.603995 0.005 0.005)
  (0.604005 0.005 0.005)
  (0.604015 0.005 0.005)
  (0.604025 0.005 0.005)
  (0.604035 0.005 0.005)
  (0.604045 0.005 0.005)
  (0.604055 0.005 0.005)
  (0.604065 0.005 0.005)
  (0.604075 0.005 0.005)
  (0.604085 0.005 0.005)
  (0.604095 0.005 0.005)
  (0.604105 0.005 0.005)
  (0.604115 0.005 0.005)
  (0.604125 0.005 0.005)
  (0.604135 0.005 0.005)
  (0.604145 0.005 0.005)
  (0.604155 0.005 0.005)
  (0.604165 0.005 0.005)
  (0.604175 0.005 0.005)
  (0.604185 0.005 0.005)
  (0.604195 0.005 0.005)
  (0.604205 0.005 0.005)
  (0.604215 0.005 0.005)
  (0.604225 0.005 0.005)
  (0.604235 0.005 0.005)
  (0.604245 0.005 0.005)
  (0.604255 0.005 0.005)
  (0.604265 0.005 0.005)
  (0.604275 0.005 0.005)
  (0.604285 0.005 0.005)
  (0.604295 0.005 0.005)
  (0.604305 0.005 0.005)
  (0.604315 0.005 0.005)
  (0.604325 0.005 0.005)
  (0.604335 0.005 0.005)
  (0.604345 0.005 0.005)
  (0.604355 0.005 0.005)
  (0.604365 0.005 0.005)
  (0.604375 0.005 0.005)
  (0.604385 0.005 0.005)
  (0.604395 0.005 0.005)
  (0.604405 0.005 0.005)
  (0.604415 0.005 0.005)
  (0.604425 0.005 0.005)
  (0.604435 0.005 0.005)
  (0.604445 0.005 0.005)
  (0.604455 0.005 0.005)
  (0.604465 0.005 0.005)
  (0.604475 0.005 0.005)
  (0.604485 0.005 0.005)
  (0.604495 0.005 0.005)
  (0.604505 0.005 0.005)
  (0.604515 0.005 0.005)
  (0.604525 0.005 0.005)
  (0.604535 0.005 0.005)
  (0.604545 0.005 0.005)
  (0.604555 0.005 0.005)
  (0.604565 0.005 0.005)
  (0.604575 0.005 0.005)
  (0.604585 0.005 0.005)
  (0.604595 0.005 0.005)
  (0.604605 0.005 0.005)
  (0.604615 0.005 0.005)
  (0.604625 0.005 0.005)
  (0.604635 0.005 0.005)
  (0.604645 0.005 0.005)
  (0.604655 0.005 0.005)
  (0.604665 0.005 0.005)
  (0.604675 0.005 0.005)
  (0.604685 0.005 0.005)
  (0.604695 0.005 0.005)
  (0.604705 0.005 0.005)
  (0.604715 0.005 0.005)
  (0.604725 0.005 0.005)
  (0.604735 0.005 0.005)
  (0.604745 0.005 0.005)
  (0.604755 0.005 0.005)
  (0.604765 0.005 0.005)
  (0.604775 0.005 0.005)
  (0.604785 0.005 0.005)
  (0.604795 0.005 0.005)
  (0.604805 0.005 0.005)
  (0.604815 0.005 0.005)
  (0.604825 0.005 0.005)
  (0.604835 0.005 0.005)
  (0.604845 0.005 0.005)
  (0.604855 0.005 0.005)
  (0.604865 0.005 0.005)
  (0.604875 0.005 0.005)
  (0.604885 0.005 0.005)
  (0.604895 0.005 0.005)
  (0.604905 0.005 0.005)
  (0.604915 0.005 0.005)
  (0.604925 0.005 0.005)
  (0.604935 0.005 0.005)
  (0.604945 0.005 0.005)
  (0.604955 0.005 0.005)
  (0.604965 0.005 0.005)
  (0.604975 0.005 0.005)
  (0.604985 0.005 0.005)
  (0.604995 0.005 0.005)
  (0.605005 0.005 0.005)
  (0.605015 0.005 0.005)
  (0.605025 0.005 0.005)
  (0.605035 0.005 0.005)
  (0.605045 0.005 0.005)
  (0.605055 0.005 0.005)
  (0.605065 0.005 0.005)
  (0.605075 0.005 0.005)
  (0.605085 0.005 0.005)
  (0.605095 0.005 0.005)
  (0.605105 0.005 0.005)
  (0.605115 0.005 0.005)
  (0.605125 0.005 0.005)
  (0.605135 0.005 0.005)
  (0.605145 0.005 0.005)
  (0.605155 0.005 0.005)
  (0.605165 0.005 0.005)
  (0.605175 0.005 0.005)
  (0.605185 0.005 0.005)
  (0.605195 0.005 0.005)
  (0.605205 0.005 0.005)
  (0.605215 0.005 0.005)
  (0.605225 0.005 0.005)
  (0.605235 0.005 0.005)
  (0.605245 0.005 0.005)
  (0.605255 0.005 0.005)
  (0.605265 0.005 0.005)
  (0.605275 0.005 0.005)
  (0.605285 0.005 0.005)
  (0.605295 0.005 0.005)
  (0.605305 0.005 0.005)
  (0.605315 0.005 0.005)
  (0.605325 0.005 0.005)
  (0.605335 0.005 0.005)
  (0.605345 0.005 0.005)
  (0.605355 0.005 0.005)
  (0.605365 0.005 0.005)
  (0.605375 0.005 0.005)
  (0.605385 0.005 0.005)
  (0.605395 0.005 0.005)
  (0.605405 0.005 0.005)
  (0.605415 0.005 0.005)
  (0.605425 0.005 0.005)
  (0.605435 0.005 0.005)
  (0.605445 0.005 0.005)
  (0.605455 0.005 0.005)
  (0.605465 0.005 0.005)
  (0.605475 0.005 0.005)
  (0.605485 0.005 0.005)
  (0.605495 0.005 0.005)
  (0.605505 0.005 0.005)
  (0.605515 0.005 0.005)
  (0.605525 0.005 0.005)
  (0.605535 0.005 0.005)
  (0.605545 0.005 0.005)
  (0.605555 0.005 0.005)
  (0.605565 0.005 0.005)
  (0.605575 0.005 0.005)
  (0.605585 0.005 0.005)
  (0.605595 0.005 0.005)
  (0.605605 0.005 0.005)
  (0.605615 0.005 0.005)
  (0.605625 0.005 0.005)
  (0.605635 0.005 0.005)
  (0.605645 0.005 0.005)
  (0.605655 0.005 0.005)
  (0.605665 0.005 0.005)
  (0.605675 0.005 0.005)
  (0.605685 0.005 0.005)
  (0.605695 0.005 0.005)
  (0.605705 0.005 0.005)
  (0.605715 0.005 0.005)
  (0.605725 0.005 0.005)
  (0.605735 0.005 0.005)
  (0.605745 0.005 0.005)
  (0.605755 0.005 0.005)
  (0.605765 0.005 0.005)
  (0.605775 0.005 0.005)
  (0.605785 0.005 0.005)
  (0.605795 0.005 0.005)
  (0.605805 0.005 0.005)
  (0.605815 0.005 0.005)
  (0.605825 0.005 0.005)
  (0.605835 0.005 0.005)
  (0.605845 0.005 0.005)
  (0.605855 0.005 0.005)
  (0.605865 0.005 0.005)
  (0.605875 0.005 0.005)
  (0.605885 0.005 0.005)
  (0.605895 0.005 0.005)
  (0.605905 0.005 0.005)
  (0.605915 0.005 0.005)
  (0.605925 0.005 0.005)
  (0.605935 0.005 0.005)
  (0.605945 0.005 0.005)
  (0.605955 0.005 0.005)
  (0.605965 0.005 0.005)
  (0.605975 0.005 0.005)
  (0.605985 0.005 0.005)
  (0.605995 0.005 0.005)
  (0.606005 0.005 0.005)
  (0.606015 0.005 0.005)
  (0.606025 0.005 0.005)
  (0.606035 0.005 0.005)
  (0.606045 0.005 0.005)
  (0.606055 0.005 0.005)
  (0.606065 0.005 0.005)
  (0.606075 0.005 0.005)
  (0.606085 0.005 0.005)
  (0.606095 0.005 0.005)
  (0.606105 0.005 0.005)
  (0.606115 0.005 0.005)
  (0.606125 0.005 0.005)
  (0.606135 0.005 0.005)
  (0.606145 0.005 0.005)
  (0.606155 0.005 0.005)
  (0.606165 0.005 0.005)
  (0.606175 0.005 0.005)
  (0.606185 0.005 0.005)
  (0.606195 0.005 0.005)
  (0.606205 0.005 0.005)
  (0.606215 0.005 0.005)
  (0.606225 0.005 0.005)
  (0.606235 0.005 0.005)
  (0.606245 0.005 0.005)
  (0.606255 0.005 0.005)
  (0.606265 0.005 0.005)
  (0.606275 0.005 0.005)
  (0.606285 0.005 0.005)
  (0.606295 0.005 0.005)
  (0.606305 0.005 0.005)
  (0.606315 0.005 0.005)
  (0.606325 0.005 0.005)
  (0.606335 0.005 0.005)
  (0.606345 0.005 0.005)
  (0.606355 0.005 0.005)
  (0.606365 0.005 0.005)
  (0.606375 0.005 0.005)
  (0.606385 0.005 0.005)
  (0.606395 0.005 0.005)
  (0.606405 0.005 0.005)
  (0.606415 0.005 0.005)
  (0.606425 0.005 0.005)
  (0.606435 0.005 0.005)
  (0.606445 0.005 0.005)
  (0.606455 0.005 0.005)
  (0.606465 0.005 0.005)
  (0.606475 0.005 0.005)
  (0.606485 0.005 0.005)
  (0.606495 0.005 0.005)
  (0.606505 0.005 0.005)
  (0.606515 0.005 0.005)
  (0.606525 0.005 0.005)
  (0.606535 0.005 0.005)
  (0.606545 0.005 0.005)
  (0.606555 0.005 0.005)
  (0.606565 0.005 0.005)
  (0.606575 0.005 0.005)
  (0.606585 0.005 0.005)
  (0.606595 0.005 0.005)
  (0.606605 0.005 0.005)
  (0.606615 0.005 0.005)
  (0.606625 0.005 0.005)
  (0.606635 0.005 0.005)
  (0.606645 0.005 0.005)
  (0.606655 0.005 0.005)
  (0.606665 0.005 0.005)
  (0.606675 0.005 0.005)
  (0.606685 0.005 0.005)
  (0.606695 0.005 0.005)
  (0.606705 0.005 0.005)
  (0.606715 0.005 0.005)
  (0.606725 0.005 0.005)
  (0.606735 0.005 0.005)
  (0.606745 0.005 0.005)
  (0.606755 0.005 0.005)
  (0.606765 0.005 0.005)
  (0.606775 0.005 0.005)
  (0.606785 0.005 0.005)
  (0.606795 0.005 0.005)
  (0.606805 0.005 0.005)
  (0.606815 0.005 0.005)
  (0.606825 0.005 0.005)
  (0.606835 0.005 0.005)
  (0.606845 0.005 0.005)
  (0.606855 0.005 0.005)
  (0.606865 0.005 0.005)
  (0.606875 0.005 0.005)
  (0.606885 0.005 0.005)
  (0.606895 0.005 0.005)
  (0.606905 0.005 0.005)
  (0.606915 0.005 0.005)
  (0.606925 0.005 0.005)
  (0.606935 0.005 0.005)
  (0.606945 0.005 0.005)
  (0.606955 0.005 0.005)
  (0.606965 0.005 0.005)
  (0.606975 0.005 0.005)
  (0.606985 0.005 0.005)
  (0.606995 0.005 0.005)
  (0.607005 0.005 0.005)
  (0.607015 0.005 0.005)
  (0.607025 0.005 0.005)
  (0.607035 0.005 0.005)
  (0.607045 0.005 0.005)
  (0.607055 0.005 0.005)
  (0.607065 0.005 0.005)
  (0.607075 0.005 0.005)
  (0.607085 0.005 0.005)
  (0.607095 0.005 0.005)
  (0.607105 0.005 0.005)
  (0.607115 0.005 0.005)
  (0.607125 0.005 0.005)
  (0.607135 0.005 0.005)
  (0.607145 0.005 0.005)
  (0.607155 0.005 0.005)
  (0.607165 0.005 0.005)
  (0.607175 0.005 0.005)
  (0.607185 0.005 0.005)
  (0.607195 0.005 0.005)
  (0.607205 0.005 0.005)
  (0.607215 0.005 0.005)
  (0.607225 0.005 0.005)
  (0.607235 0.005 0.005)
  (0.607245 0.005 0.005)
  (0.607255 0.005 0.005)
  (0.607265 0.005 0.005)
  (0.607275 0.005 0.005)
  (0.607285 0.005 0.005)
  (0.607295 0.005 0.005)
  (0.607305 0.005 0.005)
  (0.607315 0.005 0.005)
  (0.607325 0.005 0.005)
  (0.607335 0.005 0.005)
  (0.607345 0.005 0.005)
  (0.607355 0.005 0.005)
  (0.607365 0.005 0.005)
  (0.607375 0.005 0.005)
  (0.607385 0.005 0.005)
  (0.607395 0.005 0.005)
  (0.607405 0.005 0.005)
  (0.607415 0.005 0.005)
  (0.607425 0.005 0.005)
  (0.607435 0.005 0.005)
  (0.607445 0.005 0.005)
  (0.607455 0.005 0.005)
  (0.607465 0.005 0.005)
  (0.607475 0.005 0.005)
  (0.607485 0.005 0.005)
  (0.607495 0.005 0.005)
  (0.607505 0.005 0.005)
  (0.607515 0.005 0.005)
  (0.607525 0.005 0.005)
  (0.607535 0.005 0.005)
  (0.607545 0.005 0.005)
  (0.607555 0.005 0.005)
  (0.607565 0.005 0.005)
  (0.607575 0.005 0.005)
  (0.607585 0.005 0.005)
  (0.607595 0.005 0.005)
  (0.607605 0.005 0.005)
  (0.607615 0.005 0.005)
  (0.607625 0.005 0.005)
  (0.607635 0.005 0.005)
  (0.607645 0.005 0.005)
  (0.607655 0.005 0.005)
  (0.607665 0.005 0.005)
  (0.607675 0.005 0.005)
  (0.607685 0.005 0.005)
  (0.607695 0.005 0.005)
  (0.607705 0.005 0.005)
  (0.607715 0.005 0.005)
  (0.607725 0.005 0.005)
  (0.607735 0.005 0.005)
  (0.607745 0.005 0.005)
  (0.607755 0.005 0.005)
  (0.607765 0.005 0.005)
  (0.607775 0.005 0.005)
  (0.607785 0.005 0.005)
  (0.607795 0.005 0.005)
  (0.607805 0.005 0.005)
  (0.607815 0.005 0.005)
  (0.607825 0.005 0.005)
  (0.607835 0.005 0.005)
  (0.607845 0.005 0.005)
  (0.607855 0.005 0.005)
  (0.607865 0.005 0.005)
  (0.607875 0.005 0.005)
  (0.607885 0.005 0.005)
  (0.607895 0.005 0.005)
  (0.607905 0.005 0.005)
  (0.607915 0.005 0.005)
  (0.607925 0.005 0.005)
  (0.607935 0.005 0.005)
  (0.607945 0.005 0.005)
  (0.607955 0.005 0.005)
  (0.607965 0.005 0.005)
  (0.607975 0.005 0.005)
  (0.607985 0.005 0.005)
  (0.607995 0.005 0.005)
  (0.608005 0.005 0.005)
  (0.608015 0.005 0.005)
  (0.608025 0.005 0.005)
  (0.608035 0.005 0.005)
  (0.608045 0.005 0.005)
  (0.608055 0.005 0.005)
  (0.608065 0.005 0.005)
  (0.608075 0.005 0.005)
  (0.608085 0.005 0.005)
  (0.608095 0.005 0.005)
  (0.608105 0.005 0.005)
  (0.608115 0.005 0.005)
  (0.608125 0.005 0.005)
  (0.608135 0.005 0.005)
  (0.608145 0.005 0.005)
  (0.608155 0.005 0.005)
  (0.608165 0.005 0.005)
  (0.608175 0.005 0.005)
  (0.608185 0.005 0.005)
  (0.608195 0.005 0.005)
  (0.608205 0.005 0.005)
  (0.608215 0.005 0.005)
  (0.608225 0.005 0.005)
  (0.608235 0.005 0.005)
  (0.608245 0.005 0.005)
  (0.608255 0.005 0.005)
  (0.608265 0.005 0.005)
  (0.608275 0.005 0.005)
  (0.608285 0.005 0.005)
  (0.608295 0.005 0.005)
  (0.608305 0.005 0.005)
  (0.608315 0.005 0.005)
  (0.608325 0.005 0.005)
  (0.608335 0.005 0.005)
  (0.608345 0.005 0.005)
  (0.608355 0.005 0.005)
  (0.608365 0.005 0.005)
  (0.608375 0.005 0.005)
  (0.608385 0.005 0.005)
  (0.608395 0.005 0.005)
  (0.608405 0.005 0.005)
  (0.608415 0.005 0.005)
  (0.608425 0.005 0.005)
  (0.608435 0.005 0.005)
  (0.608445 0.005 0.005)
  (0.608455 0.005 0.005)
  (0.608465 0.005 0.005)
  (0.608475 0.005 0.005)
  (0.608485 0.005 0.005)
  (0.608495 0.005 0.005)
  (0.608505 0.005 0.005)
  (0.608515 0.005 0.005)
  (0.608525 0.005 0.005)
  (0.608535 0.005 0.005)
  (0.608545 0.005 0.005)
  (0.608555 0.005 0.005)
  (0.608565 0.005 0.005)
  (0.608575 0.005 0.005)
  (0.608585 0.005 0.005)
  (0.608595 0.005 0.005)
  (0.608605 0.005 0.005)
  (0.608615 0.005 0.005)
  (0.608625 0.005 0.005)
  (0.608635 0.005 0.005)
  (0.608645 0.005 0.005)
  (0.608655 0.005 0.005)
  (0.608665 0.005 0.005)
  (0.608675 0.005 0.005)
  (0.608685 0.005 0.005)
  (0.608695 0.005 0.005)
  (0.608705 0.005 0.005)
  (0.608715 0.005 0.005)
  (0.608725 0.005 0.005)
  (0.608735 0.005 0.005)
  (0.608745 0.005 0.005)
  (0.608755 0.005 0.005)
  (0.608765 0.005 0.005)
  (0.608775 0.005 0.005)
  (0.608785 0.005 0.005)
  (0.608795 0.005 0.005)
  (0.608805 0.005 0.005)
  (0.608815 0.005 0.005)
  (0.608825 0.005 0.005)
  (0.608835 0.005 0.005)
  (0.608845 0.005 0.005)
  (0.608855 0.005 0.005)
  (0.608865 0.005 0.005)
  (0.608875 0.005 0.005)
  (0.608885 0.005 0.005)
  (0.608895 0.005 0.005)
  (0.608905 0.005 0.005)
  (0.608915 0.005 0.005)
  (0.608925 0.005 0.005)
  (0.608935 0.005 0.005)
  (0.608945 0.005 0.005)
  (0.608955 0.005 0.005)
  (0.608965 0.005 0.005)
  (0.608975 0.005 0.005)
  (0.608985 0.005 0.005)
  (0.608995 0.005 0.005)
  (0.609005 0.005 0.005)
  (0.609015 0.005 0.005)
  (0.609025 0.005 0.005)
  (0.609035 0.005 0.005)
  (0.609045 0.005 0.005)
  (0.609055 0.005 0.005)
  (0.609065 0.005 0.005)
  (0.609075 0.005 0.005)
  (0.609085 0.005 0.005)
  (0.609095 0.005 0.005)
  (0.609105 0.005 0.005)
  (0.609115 0.005 0.005)
  (0.609125 0.005 0.005)
  (0.609135 0.005 0.005)
  (0.609145 0.005 0.005)
  (0.609155 0.005 0.005)
  (0.609165 0.005 0.005)
  (0.609175 0.005 0.005)
  (0.609185 0.005 0.005)
  (0.609195 0.005 0.005)
  (0.609205 0.005 0.005)
  (0.609215 0.005 0.005)
  (0.609225 0.005 0.005)
  (0.609235 0.005 0.005)
  (0.609245 0.005 0.005)
  (0.609255 0.005 0.005)
  (0.609265 0.005 0.005)
  (0.609275 0.005 0.005)
  (0.609285 0.005 0.005)
  (0.609295 0.005 0.005)
  (0.609305 0.005 0.005)
  (0.609315 0.005 0.005)
  (0.609325 0.005 0.005)
  (0.609335 0.005 0.005)
  (0.609345 0.005 0.005)
  (0.609355 0.005 0.005)
  (0.609365 0.005 0.005)
  (0.609375 0.005 0.005)
  (0.609385 0.005 0.005)
  (0.609395 0.005 0.005)
  (0.609405 0.005 0.005)
  (0.609415 0.005 0.005)
  (0.609425 0.005 0.005)
  (0.609435 0.005 0.005)
  (0.609445 0.005 0.005)
  (0.609455 0.005 0.005)
  (0.609465 0.005 0.005)
  (0.609475 0.005 0.005)
  (0.609485 0.005 0.005)
  (0.609495 0.005 0.005)
  (0.609505 0.005 0.005)
  (0.609515 0.005 0.005)
  (0.609525 0.005 0.005)
  (0.609535 0.005 0.005)
  (0.609545 0.005 0.005)
  (0.609555 0.005 0.005)
  (0.609565 0.005 0.005)
  (0.609575 0.005 0.005)
  (0.609585 0.005 0.005)
  (0.609595 0.005 0.005)
  (0.609605 0.005 0.005)
  (0.609615 0.005 0.005)
  (0.609625 0.005 0.005)
  (0.609635 0.005 0.005)
  (0.609645 0.005 0.005)
  (0.609655 0.005 0.005)
  (0.609665 0.005 0.005)
  (0.609675 0.005 0.005)
  (0.609685 0.005 0.005)
  (0.609695 0.005 0.005)
  (0.609705 0.005 0.005)
  (0.609715 0.005 0.005)
  (0.609725 0.005 0.005)
  (0.609735 0.005 0.005)
  (0.609745 0.005 0.005)
  (0.609755 0.005 0.005)
  (0.609765 0.005 0.005)
  (0.609775 0.005 0.005)
  (0.609785 0.005 0.005)
  (0.609795 0.005 0.005)
  (0.609805 0.005 0.005)
  (0.609815 0.005 0.005)
  (0.609825 0.005 0.005)
  (0.609835 0.005 0.005)
  (0.609845 0.005 0.005)
  (0.609855 0.005 0.005)
  (0.609865 0.005 0.005)
  (0.609875 0.005 0.005)
  (0.609885 0.005 0.005)
  (0.609895 0.005 0.005)
  (0.609905 0.005 0.005)
  (0.609915 0.005 0.005)
  (0.609925 0.005 0.005)
  (0.609935 0.005 0.005)
  (0.609945 0.005 0.005)
  (0.609955 0.005 0.005)
  (0.609965 0.005 0.005)
  (0.609975 0.005 0.005)
  (0.609985 0.005 0.005)
  (0.609995 0.005 0.005)
  (0.610005 0.005 0.005)
  (0.610015 0.005 0.005)
  (0.610025 0.005 0.005)
  (0.610035 0.005 0.005)
  (0.610045 0.005 0.005)
  (0.610055 0.005 0.005)
  (0.610065 0.005 0.005)
  (0.610075 0.005 0.005)
  (0.610085 0.005 0.005)
  (0.610095 0.005 0.005)
  (0.610105 0.005 0.005)
  (0.610115 0.005 0.005)
  (0.610125 0.005 0.005)
  (0.610135 0.005 0.005)
  (0.610145 0.005 0.005)
  (0.610155 0.005 0.005)
  (0.610165 0.005 0.005)
  (0.610175 0.005 0.005)
  (0.610185 0.005 0.005)
  (0.610195 0.005 0.005)
  (0.610205 0.005 0.005)
  (0.610215 0.005 0.005)
  (0.610225 0.005 0.005)
  (0.610235 0.005 0.005)
  (0.610245 0.005 0.005)
  (0.610255 0.005 0.005)
  (0.610265 0.005 0.005)
  (0.610275 0.005 0.005)
  (0.610285 0.005 0.005)
  (0.610295 0.005 0.005)
  (0.610305 0.005 0.005)
  (0.610315 0.005 0.005)
  (0.610325 0.005 0.005)
  (0.610335 0.005 0.005)
  (0.610345 0.005 0.005)
  (0.610355 0.005 0.005)
  (0.610365 0.005 0.005)
  (0.610375 0.005 0.005)
  (0.610385 0.005 0.005)
  (0.610395 0.005 0.005)
  (0.610405 0.005 0.005)
  (0.610415 0.005 0.005)
  (0.610425 0.005 0.005)
  (0.610435 0.005 0.005)
  (0.610445 0.005 0.005)
  (0.610455 0.005 0.005)
  (0.610465 0.005 0.005)
  (0.610475 0.005 0.005)
  (0.610485 0.005 0.005)
  (0.610495 0.005 0.005)
  (0.610505 0.005 0.005)
  (0.610515 0.005 0.005)
  (0.610525 0.005 0.005)
  (0.610535 0.005 0.005)
  (0.610545 0.005 0.005)
  (0.610555 0.005 0.005)
  (0.610565 0.005 0.005)
  (0.610575 0.005 0.005)
  (0.610585 0.005 0.005)
  (0.610595 0.005 0.005)
  (0.610605 0.005 0.005)
  (0.610615 0.005 0.005)
  (0.610625 0.005 0.005)
  (0.610635 0.005 0.005)
  (0.610645 0.005 0.005)
  (0.610655 0.005 0.005)
  (0.610665 0.005 0.005)
  (0.610675 0.005 0.005)
  (0.610685 0.005 0.005)
  (0.610695 0.005 0.005)
  (0.610705 0.005 0.005)
  (0.610715 0.005 0.005)
  (0.610725 0.005 0.005)
  (0.610735 0.005 0.005)
  (0.610745 0.005 0.005)
  (0.610755 0.005 0.005)
  (0.610765 0.005 0.005)
  (0.610775 0.005 0.005)
  (0.610785 0.005 0.005)
  (0.610795 0.005 0.005)
  (0.610805 0.005 0.005)
  (0.610815 0.005 0.005)
  (0.610825 0.005 0.005)
  (0.610835 0.005 0.005)
  (0.610845 0.005 0.005)
  (0.610855 0.005 0.005)
  (0.610865 0.005 0.005)
  (0.610875 0.005 0.005)
  (0.610885 0.005 0.005)
  (0.610895 0.005 0.005)
  (0.610905 0.005 0.005)
  (0.610915 0.005 0.005)
  (0.610925 0.005 0.005)
  (0.610935 0.005 0.005)
  (0.610945 0.005 0.005)
  (0.610955 0.005 0.005)
  (0.610965 0.005 0.005)
  (0.610975 0.005 0.005)
  (0.610985 0.005 0.005)
  (0.610995 0.005 0.005)
  (0.611005 0.005 0.005)
  (0.611015 0.005 0.005)
  (0.611025 0.005 0.005)
  (0.611035 0.005 0.005)
  (0.611045 0.005 0.005)
  (0.611055 0.005 0.005)
  (0.611065 0.005 0.005)
  (0.611075 0.005 0.005)
  (0.611085 0.005 0.005)
  (0.611095 0.005 0.005)
  (0.611105 0.005 0.005)
  (0.611115 0.005 0.005)
  (0.611125 0.005 0.005)
  (0.611135 0.005 0.005)
  (0.611145 0.005 0.005)
  (0.611155 0.005 0.005)
  (0.611165 0.005 0.005)
  (0.611175 0.005 0.005)
  (0.611185 0.005 0.005)
  (0.611195 0.005 0.005)
  (0.611205 0.005 0.005)
  (0.611215 0.005 0.005)
  (0.611225 0.005 0.005)
  (0.611235 0.005 0.005)
  (0.611245 0.005 0.005)
  (0.611255 0.005 0.005)
  (0.611265 0.005 0.005)
  (0.611275 0.005 0.005)
  (0.611285 0.005 0.005)
  (0.611295 0.005 0.005)
  (0.611305 0.005 0.005)
  (0.611315 0.005 0.005)
  (0.611325 0.005 0.005)
  (0.611335 0.005 0.005)
  (0.611345 0.005 0.005)
  (0.611355 0.005 0.005)
  (0.611365 0.005 0.005)
  (0.611375 0.005 0.005)
  (0.611385 0.005 0.005)
  (0.611395 0.005 0.005)
  (0.611405 0.005 0.005)
  (0.611415 0.005 0.005)
  (0.611425 0.005 0.005)
  (0.611435 0.005 0.005)
  (0.611445 0.005 0.005)
  (0.611455 0.005 0.005)
  (0.611465 0.005 0.005)
  (0.611475 0.005 0.005)
  (0.611485 0.005 0.005)
  (0.611495 0.005 0.005)
  (0.611505 0.005 0.005)
  (0.611515 0.005 0.005)
  (0.611525 0.005 0.005)
  (0.611535 0.005 0.005)
  (0.611545 0.005 0.005)
  (0.611555 0.005 0.005)
  (0.611565 0.005 0.005)
  (0.611575 0.005 0.005)
  (0.611585 0.005 0.005)
  (0.611595 0.005 0.005)
  (0.611605 0.005 0.005)
  (0.611615 0.005 0.005)
  (0.611625 0.005 0.005)
  (0.611635 0.005 0.005)
  (0.611645 0.005 0.005)
  (0.611655 0.005 0.005)
  (0.611665 0.005 0.005)
  (0.611675 0.005 0.005)
  (0.611685 0.005 0.005)
  (0.611695 0.005 0.005)
  (0.611705 0.005 0.005)
  (0.611715 0.005 0.005)
  (0.611725 0.005 0.005)
  (0.611735 0.005 0.005)
  (0.611745 0.005 0.005)