/*--------------------------------*- C++ -*----------------------------------*\
  =========                 |
  \\      /  F ield         | OpenFOAM: The Open Source CFD Toolbox
   \\    /   O peration     | Website:  https://openfoam.org
    \\  /    A nd           | Version:  7
     \\/     M anipulation  |
\*---------------------------------------------------------------------------*/
FoamFile
{
    version     2.0;
    format      ascii;
    class       volScalarField;
    object      O2;
}
// ************************************************************************* //

dimensions          [0 0 0 0 0 0 0];

internalField       uniform 0.232260;

boundaryField
{
    Left
    {
        type            zeroGradient;
    }
    
    Right
    {
        type            zeroGradient;
    }

    empty
    {
        type            empty;
    }
}

// ************************************************************************* //
