/*--------------------------------*- C++ -*----------------------------------*\
  =========                 |
  \\      /  F ield         | OpenFOAM: The Open Source CFD Toolbox
   \\    /   O peration     | Website:  https://openfoam.org
    \\  /    A nd           | Version:  7
     \\/     M anipulation  |
\*---------------------------------------------------------------------------*/
FoamFile
{
    version     2.0;
    format      ascii;
    class       volScalarField;
    object      T;
}
// * * * * * * * * * * * * * * * * * * * * * * * * * * * * * * * * * * * * * //

dimensions      [0 0 0 1 0 0 0];

internalField   uniform 0.913683;
//internalField   uniform 300;

boundaryField
{
    Left
    {
        type            zeroGradient;
    }
    
    Right
    {
        type            inletOutlet;
        inletValue      uniform 748.472;
        value           uniform 748.472;
    }

    empty
    {
        type            empty;
    }
}

// ************************************************************************* //
