/*--------------------------------*- C++ -*----------------------------------*\
  =========                 |
  \\      /  F ield         | OpenFOAM: The Open Source CFD Toolbox
   \\    /   O peration     | Website:  https://openfoam.org
    \\  /    A nd           | Version:  7
     \\/     M anipulation  |
\*---------------------------------------------------------------------------*/
FoamFile
{
    version     2.0;
    format      ascii;
    class       dictionary;
    location    "constant";
    object      chemistryProperties;
}
// * * * * * * * * * * * * * * * * * * * * * * * * * * * * * * * * * * * * * //


chemistry           on;
CanteraMechanismFile "drm19.yaml";
transportModel "Mix";
odeCoeffs
{
    "relTol"   1e-6;
    "absTol"   1e-10;
}
inertSpecie        "N2";
zeroDReactor
{
    //cvorcp "UV";
}
loadbalancing
{
        active  true;
        //log   true;
}
// ************************************************************************* //
