/*--------------------------------*- C++ -*----------------------------------*\
  =========                 |
  \\      /  F ield         | OpenFOAM: The Open Source CFD Toolbox
   \\    /   O peration     | Website:  https://openfoam.org
    \\  /    A nd           | Version:  7
     \\/     M anipulation  |
\*---------------------------------------------------------------------------*/
FoamFile
{
    version     2.0;
    format      binary;
    class       dictionary;
    location    "constant";
    object      SprayCloudProperties;
}
// * * * * * * * * * * * * * * * * * * * * * * * * * * * * * * * * * * * * * //

solution
{
    active          true;
    coupled         true;
    transient       yes;
    cellValueSourceCorrection on;
    maxCo           0.3;

    sourceTerms
    {
        schemes
        {
            rho             explicit 1;
            U               explicit 1;
            Yi              explicit 1;
            h               explicit 1;
            radiation       explicit 1;
        }
    }

    interpolationSchemes
    {
        rho             cell;
        U               cellPoint;
        thermo:mu       cell;
        T               cell;
        Cp              cell;
        kappa           cell;
        p               cell;
    }

    integrationSchemes
    {
        U               Euler;
        T               analytical;
        // T               Euler;
    }
}


constantProperties
{
    T0              333.33;

    // place holders for rho0 and Cp0
    // - reset from liquid properties using T0
    rho0            1000;
    Cp0             4180;

    constantVolume  false;
}


subModels
{
    particleForces
    {
        sphereDrag;
    }

    injectionModels
    {
        model1
        {
            type            manualInjection;
            massTotal       5.23599e-7; // 1 droplet of density 1000 kg/m3
            parcelBasisType mass;
            SOI             0; 
            positionsFile   "cloudPositions"; 
            U0              (30.48 0 0);
            sizeDistribution
            {
                type uniform;
                uniformDistribution
                {
                    minValue        1000e-06; 
                    maxValue        1000e-06;
                }
            }
        }
    }

    dispersionModel none;

    patchInteractionModel standardWallInteraction;

    heatTransferModel RanzMarshall;

    compositionModel singlePhaseMixture;

    phaseChangeModel liquidEvaporation;

    surfaceFilmModel none;

    atomizationModel none;

    breakupModel    none;

    stochasticCollisionModel none;

    radiation       off;

    standardWallInteractionCoeffs
    {
        type            rebound;
    }

    RanzMarshallCoeffs
    {
        BirdCorrection  true;
    }

    singlePhaseMixtureCoeffs
    {
        phases
        (
            liquid
            {
                H2O               1;
            }
        );
    }

    liquidEvaporationCoeffs
    {
        enthalpyTransfer latentHeat;

        activeLiquids    ( H2O );
    }
}


cloudFunctions
{}


// ************************************************************************* //
