/*--------------------------------*- C++ -*----------------------------------*\
  =========                 |
  \\      /  F ield         | OpenFOAM: The Open Source CFD Toolbox
   \\    /   O peration     | Website:  https://openfoam.org
    \\  /    A nd           | Version:  7
     \\/     M anipulation  |
\*---------------------------------------------------------------------------*/
FoamFile
{
    version          2.0;
    format           ascii;
    class            dictionary;
    location         "constant";
    object           CanteraTorchProperties;
}
// * * * * * * * * * * * * * * * * * * * * * * * * * * * * * * * * * * * * * //

chemistry       off;

CanteraMechanismFile "gri30.yaml";

transportModel       "Mix";

odeCoeffs
{
    "relTol"         1e-8;
    "absTol"         1e-10;
}

inertSpecie          "N2";

splittingStrategy    off;

TorchSettings
{
    torch            off;
}

loadbalancing
{
    active           true;
    log              false;
   algorithm    allAverage;
}

combustionModel  flareFGM;//PaSR,EDC

EDCCoeffs
{
    version v2005;
}

PaSRCoeffs
{
   mixingScale
   {
      type   globalScale;//globalScale,kolmogorovScale,geometriMeanScale,dynamicScale

      globalScaleCoeffs
      {
        Cmix  0.01;
      }
   }
   chemistryScale
   {
      type  formationRate;//formationRate,globalConvertion
      formationRateCoeffs
      {}
   }

}

// ************************************************************************* //
