/*--------------------------------*- C++ -*----------------------------------*\
  =========                 |
  \\      /  F ield         | OpenFOAM: The Open Source CFD Toolbox
   \\    /   O peration     | Website:  https://openfoam.org
    \\  /    A nd           | Version:  7
     \\/     M anipulation  |
\*---------------------------------------------------------------------------*/
FoamFile
{
    version     2.0;
    format      ascii;
    class       dictionary;
    location    "constant";
    object      combustionProperties;
}
// * * * * * * * * * * * * * * * * * * * * * * * * * * * * * * * * * * * * * //

combustionModel  DeePFGM;//PaSR;

EDCCoeffs
{
    version v2005;
}

PaSRCoeffs
{

   mixingScale
   {
      type   geometriMeanScale;//globalScale,kolmogorovScale,geometriMeanScale,dynamicScale 
      
      globalScaleCoeffs
      {
	Cmix  0.01;
      } 

     dynamicScaleCoeffs
     {
       transportChi false;
       Cd1          1.1;
       Cd2          0.8;
       Cp1          0.9;
       Cp2          0.72;
     }	     

   }


   chemistryScale
   {
      type  formationRate;//formationRate,globalConvertion

      globalConvertionCoeffs
      {
	 fuel CH4;
	 oxidizer air;
      }

      formationRateCoeffs
      {
      }

   }

}


flareFGMCoeffs
{
  buffer           true;
  scaledPV         true;
  combustion       true;
  ignition         true;
  solveEnthalpy    false;
  flameletT        false;
  relaxation       false;
  DpDt             false;
  ignBeginTime     0.2;
  ignDurationTime  1e-4;
  x0               0.0;
  y0               0.0;
  z0               0.005;
  R0               0.004;
  Sct              0.7;
  bufferTime       0.4;
  speciesName      ("CO");
}

DeePFGMCoeffs
{
  buffer           true;
  scaledPV         true;
  combustion       true;
  ignition         true;
  solveEnthalpy    false;
  flameletT        false;
  relaxation       false;
  DpDt             false;
  ignBeginTime     0.2;
  ignDurationTime  1e-4;
  x0               0.0;
  y0               0.0;
  z0               0.005;
  R0               0.004;
  Sct              0.7;
  bufferTime       0.4;
  speciesName      ("CO");
}
// ************************************************************************* //
