/*--------------------------------*- C++ -*----------------------------------*\
  =========                 |
  \\      /  F ield         | OpenFOAM: The Open Source CFD Toolbox
   \\    /   O peration     | Website:  https://openfoam.org
    \\  /    A nd           | Version:  7
     \\/     M anipulation  |
\*---------------------------------------------------------------------------*/
FoamFile
{
    version          2.0;
    format           ascii;
    class            dictionary;
    location         "constant";
    object           CanteraTorchProperties;
}
// * * * * * * * * * * * * * * * * * * * * * * * * * * * * * * * * * * * * * //

chemistry            on;

CanteraMechanismFile "ES80_H2-7-16.yaml";

transportModel       "Mix";

odeCoeffs
{
    "relTol"         1e-15;
    "absTol"         1e-24;
}

inertSpecie          "N2";

zeroDReactor
{
    constantProperty "pressure";
}

splittingStrategy    off;

TorchSettings
{
<<<<<<< HEAD
    torch            on;
    GPU              on;
    log              on;
    torchModel1      "ESH2-sub1.pt"; 
    torchModel2      "ESH2-sub2.pt"; 
    torchModel3      "ESH2-sub3.pt"; 
    coresPerGPU      4;
    GPUsPerNode      4;
=======
    torch on;
    GPU   off;
    log  on;
    torchModel1 "ESH2-sub1.pt"; 
    torchModel2 "ESH2-sub2.pt"; 
    torchModel3 "ESH2-sub3.pt"; 
    coresPerGPU 4;
>>>>>>> e7433d21d58c1a703b8414d717381b943fdeb516
}

loadbalancing
{
    active           true;
    log              false;
}


// ************************************************************************* //
