/*--------------------------------*- C++ -*----------------------------------*\
  =========                 |
  \\      /  F ield         | OpenFOAM: The Open Source CFD Toolbox
   \\    /   O peration     | Website:  https://openfoam.org
    \\  /    A nd           | Version:  
     \\/     M anipulation  |
\*---------------------------------------------------------------------------*/
FoamFile
{
    version     .0;
    format      ascii;
    class       vectorField;
    location    "constant";
    object      cloudPositions;
}
// * * * * * * * * * * * * * * * * * * * * * * * * * * * * * * * * * * * * * //
60000
(
  (1.500025 0.005 0.0005)
  (1.500075 0.005 0.0005)
  (1.500125 0.005 0.0005)
  (1.500175 0.005 0.0005)
  (1.500225 0.005 0.0005)
  (1.500275 0.005 0.0005)
  (1.500325 0.005 0.0005)
  (1.500375 0.005 0.0005)
  (1.500425 0.005 0.0005)
  (1.500475 0.005 0.0005)
  (1.500525 0.005 0.0005)
  (1.500575 0.005 0.0005)
  (1.500625 0.005 0.0005)
  (1.500675 0.005 0.0005)
  (1.500725 0.005 0.0005)
  (1.500775 0.005 0.0005)
  (1.500825 0.005 0.0005)
  (1.500875 0.005 0.0005)
  (1.500925 0.005 0.0005)
  (1.500975 0.005 0.0005)
  (1.501025 0.005 0.0005)
  (1.501075 0.005 0.0005)
  (1.501125 0.005 0.0005)
  (1.501175 0.005 0.0005)
  (1.501225 0.005 0.0005)
  (1.501275 0.005 0.0005)
  (1.501325 0.005 0.0005)
  (1.501375 0.005 0.0005)
  (1.501425 0.005 0.0005)
  (1.501475 0.005 0.0005)
  (1.501525 0.005 0.0005)
  (1.501575 0.005 0.0005)
  (1.501625 0.005 0.0005)
  (1.501675 0.005 0.0005)
  (1.501725 0.005 0.0005)
  (1.501775 0.005 0.0005)
  (1.501825 0.005 0.0005)
  (1.501875 0.005 0.0005)
  (1.501925 0.005 0.0005)
  (1.501975 0.005 0.0005)
  (1.502025 0.005 0.0005)
  (1.502075 0.005 0.0005)
  (1.502125 0.005 0.0005)
  (1.502175 0.005 0.0005)
  (1.502225 0.005 0.0005)
  (1.502275 0.005 0.0005)
  (1.502325 0.005 0.0005)
  (1.502375 0.005 0.0005)
  (1.502425 0.005 0.0005)
  (1.502475 0.005 0.0005)
  (1.502525 0.005 0.0005)
  (1.502575 0.005 0.0005)
  (1.502625 0.005 0.0005)
  (1.502675 0.005 0.0005)
  (1.502725 0.005 0.0005)
  (1.502775 0.005 0.0005)
  (1.502825 0.005 0.0005)
  (1.502875 0.005 0.0005)
  (1.502925 0.005 0.0005)
  (1.502975 0.005 0.0005)
  (1.503025 0.005 0.0005)
  (1.503075 0.005 0.0005)
  (1.503125 0.005 0.0005)
  (1.503175 0.005 0.0005)
  (1.503225 0.005 0.0005)
  (1.503275 0.005 0.0005)
  (1.503325 0.005 0.0005)
  (1.503375 0.005 0.0005)
  (1.503425 0.005 0.0005)
  (1.503475 0.005 0.0005)
  (1.503525 0.005 0.0005)
  (1.503575 0.005 0.0005)
  (1.503625 0.005 0.0005)
  (1.503675 0.005 0.0005)
  (1.503725 0.005 0.0005)
  (1.503775 0.005 0.0005)
  (1.503825 0.005 0.0005)
  (1.503875 0.005 0.0005)
  (1.503925 0.005 0.0005)
  (1.503975 0.005 0.0005)
  (1.504025 0.005 0.0005)
  (1.504075 0.005 0.0005)
  (1.504125 0.005 0.0005)
  (1.504175 0.005 0.0005)
  (1.504225 0.005 0.0005)
  (1.504275 0.005 0.0005)
  (1.504325 0.005 0.0005)
  (1.504375 0.005 0.0005)
  (1.504425 0.005 0.0005)
  (1.504475 0.005 0.0005)
  (1.504525 0.005 0.0005)
  (1.504575 0.005 0.0005)
  (1.504625 0.005 0.0005)
  (1.504675 0.005 0.0005)
  (1.504725 0.005 0.0005)
  (1.504775 0.005 0.0005)
  (1.504825 0.005 0.0005)
  (1.504875 0.005 0.0005)
  (1.504925 0.005 0.0005)
  (1.504975 0.005 0.0005)
  (1.505025 0.005 0.0005)
  (1.505075 0.005 0.0005)
  (1.505125 0.005 0.0005)
  (1.505175 0.005 0.0005)
  (1.505225 0.005 0.0005)
  (1.505275 0.005 0.0005)
  (1.505325 0.005 0.0005)
  (1.505375 0.005 0.0005)
  (1.505425 0.005 0.0005)
  (1.505475 0.005 0.0005)
  (1.505525 0.005 0.0005)
  (1.505575 0.005 0.0005)
  (1.505625 0.005 0.0005)
  (1.505675 0.005 0.0005)
  (1.505725 0.005 0.0005)
  (1.505775 0.005 0.0005)
  (1.505825 0.005 0.0005)
  (1.505875 0.005 0.0005)
  (1.505925 0.005 0.0005)
  (1.505975 0.005 0.0005)
  (1.506025 0.005 0.0005)
  (1.506075 0.005 0.0005)
  (1.506125 0.005 0.0005)
  (1.506175 0.005 0.0005)
  (1.506225 0.005 0.0005)
  (1.506275 0.005 0.0005)
  (1.506325 0.005 0.0005)
  (1.506375 0.005 0.0005)
  (1.506425 0.005 0.0005)
  (1.506475 0.005 0.0005)
  (1.506525 0.005 0.0005)
  (1.506575 0.005 0.0005)
  (1.506625 0.005 0.0005)
  (1.506675 0.005 0.0005)
  (1.506725 0.005 0.0005)
  (1.506775 0.005 0.0005)
  (1.506825 0.005 0.0005)
  (1.506875 0.005 0.0005)
  (1.506925 0.005 0.0005)
  (1.506975 0.005 0.0005)
  (1.507025 0.005 0.0005)
  (1.507075 0.005 0.0005)
  (1.507125 0.005 0.0005)
  (1.507175 0.005 0.0005)
  (1.507225 0.005 0.0005)
  (1.507275 0.005 0.0005)
  (1.507325 0.005 0.0005)
  (1.507375 0.005 0.0005)
  (1.507425 0.005 0.0005)
  (1.507475 0.005 0.0005)
  (1.507525 0.005 0.0005)
  (1.507575 0.005 0.0005)
  (1.507625 0.005 0.0005)
  (1.507675 0.005 0.0005)
  (1.507725 0.005 0.0005)
  (1.507775 0.005 0.0005)
  (1.507825 0.005 0.0005)
  (1.507875 0.005 0.0005)
  (1.507925 0.005 0.0005)
  (1.507975 0.005 0.0005)
  (1.508025 0.005 0.0005)
  (1.508075 0.005 0.0005)
  (1.508125 0.005 0.0005)
  (1.508175 0.005 0.0005)
  (1.508225 0.005 0.0005)
  (1.508275 0.005 0.0005)
  (1.508325 0.005 0.0005)
  (1.508375 0.005 0.0005)
  (1.508425 0.005 0.0005)
  (1.508475 0.005 0.0005)
  (1.508525 0.005 0.0005)
  (1.508575 0.005 0.0005)
  (1.508625 0.005 0.0005)
  (1.508675 0.005 0.0005)
  (1.508725 0.005 0.0005)
  (1.508775 0.005 0.0005)
  (1.508825 0.005 0.0005)
  (1.508875 0.005 0.0005)
  (1.508925 0.005 0.0005)
  (1.508975 0.005 0.0005)
  (1.509025 0.005 0.0005)
  (1.509075 0.005 0.0005)
  (1.509125 0.005 0.0005)
  (1.509175 0.005 0.0005)
  (1.509225 0.005 0.0005)
  (1.509275 0.005 0.0005)
  (1.509325 0.005 0.0005)
  (1.509375 0.005 0.0005)
  (1.509425 0.005 0.0005)
  (1.509475 0.005 0.0005)
  (1.509525 0.005 0.0005)
  (1.509575 0.005 0.0005)
  (1.509625 0.005 0.0005)
  (1.509675 0.005 0.0005)
  (1.509725 0.005 0.0005)
  (1.509775 0.005 0.0005)
  (1.509825 0.005 0.0005)
  (1.509875 0.005 0.0005)
  (1.509925 0.005 0.0005)
  (1.509975 0.005 0.0005)
  (1.510025 0.005 0.0005)
  (1.510075 0.005 0.0005)
  (1.510125 0.005 0.0005)
  (1.510175 0.005 0.0005)
  (1.510225 0.005 0.0005)
  (1.510275 0.005 0.0005)
  (1.510325 0.005 0.0005)
  (1.510375 0.005 0.0005)
  (1.510425 0.005 0.0005)
  (1.510475 0.005 0.0005)
  (1.510525 0.005 0.0005)
  (1.510575 0.005 0.0005)
  (1.510625 0.005 0.0005)
  (1.510675 0.005 0.0005)
  (1.510725 0.005 0.0005)
  (1.510775 0.005 0.0005)
  (1.510825 0.005 0.0005)
  (1.510875 0.005 0.0005)
  (1.510925 0.005 0.0005)
  (1.510975 0.005 0.0005)
  (1.511025 0.005 0.0005)
  (1.511075 0.005 0.0005)
  (1.511125 0.005 0.0005)
  (1.511175 0.005 0.0005)
  (1.511225 0.005 0.0005)
  (1.511275 0.005 0.0005)
  (1.511325 0.005 0.0005)
  (1.511375 0.005 0.0005)
  (1.511425 0.005 0.0005)
  (1.511475 0.005 0.0005)
  (1.511525 0.005 0.0005)
  (1.511575 0.005 0.0005)
  (1.511625 0.005 0.0005)
  (1.511675 0.005 0.0005)
  (1.511725 0.005 0.0005)
  (1.511775 0.005 0.0005)
  (1.511825 0.005 0.0005)
  (1.511875 0.005 0.0005)
  (1.511925 0.005 0.0005)
  (1.511975 0.005 0.0005)
  (1.512025 0.005 0.0005)
  (1.512075 0.005 0.0005)
  (1.512125 0.005 0.0005)
  (1.512175 0.005 0.0005)
  (1.512225 0.005 0.0005)
  (1.512275 0.005 0.0005)
  (1.512325 0.005 0.0005)
  (1.512375 0.005 0.0005)
  (1.512425 0.005 0.0005)
  (1.512475 0.005 0.0005)
  (1.512525 0.005 0.0005)
  (1.512575 0.005 0.0005)
  (1.512625 0.005 0.0005)
  (1.512675 0.005 0.0005)
  (1.512725 0.005 0.0005)
  (1.512775 0.005 0.0005)
  (1.512825 0.005 0.0005)
  (1.512875 0.005 0.0005)
  (1.512925 0.005 0.0005)
  (1.512975 0.005 0.0005)
  (1.513025 0.005 0.0005)
  (1.513075 0.005 0.0005)
  (1.513125 0.005 0.0005)
  (1.513175 0.005 0.0005)
  (1.513225 0.005 0.0005)
  (1.513275 0.005 0.0005)
  (1.513325 0.005 0.0005)
  (1.513375 0.005 0.0005)
  (1.513425 0.005 0.0005)
  (1.513475 0.005 0.0005)
  (1.513525 0.005 0.0005)
  (1.513575 0.005 0.0005)
  (1.513625 0.005 0.0005)
  (1.513675 0.005 0.0005)
  (1.513725 0.005 0.0005)
  (1.513775 0.005 0.0005)
  (1.513825 0.005 0.0005)
  (1.513875 0.005 0.0005)
  (1.513925 0.005 0.0005)
  (1.513975 0.005 0.0005)
  (1.514025 0.005 0.0005)
  (1.514075 0.005 0.0005)
  (1.514125 0.005 0.0005)
  (1.514175 0.005 0.0005)
  (1.514225 0.005 0.0005)
  (1.514275 0.005 0.0005)
  (1.514325 0.005 0.0005)
  (1.514375 0.005 0.0005)
  (1.514425 0.005 0.0005)
  (1.514475 0.005 0.0005)
  (1.514525 0.005 0.0005)
  (1.514575 0.005 0.0005)
  (1.514625 0.005 0.0005)
  (1.514675 0.005 0.0005)
  (1.514725 0.005 0.0005)
  (1.514775 0.005 0.0005)
  (1.514825 0.005 0.0005)
  (1.514875 0.005 0.0005)
  (1.514925 0.005 0.0005)
  (1.514975 0.005 0.0005)
  (1.515025 0.005 0.0005)
  (1.515075 0.005 0.0005)
  (1.515125 0.005 0.0005)
  (1.515175 0.005 0.0005)
  (1.515225 0.005 0.0005)
  (1.515275 0.005 0.0005)
  (1.515325 0.005 0.0005)
  (1.515375 0.005 0.0005)
  (1.515425 0.005 0.0005)
  (1.515475 0.005 0.0005)
  (1.515525 0.005 0.0005)
  (1.515575 0.005 0.0005)
  (1.515625 0.005 0.0005)
  (1.515675 0.005 0.0005)
  (1.515725 0.005 0.0005)
  (1.515775 0.005 0.0005)
  (1.515825 0.005 0.0005)
  (1.515875 0.005 0.0005)
  (1.515925 0.005 0.0005)
  (1.515975 0.005 0.0005)
  (1.516025 0.005 0.0005)
  (1.516075 0.005 0.0005)
  (1.516125 0.005 0.0005)
  (1.516175 0.005 0.0005)
  (1.516225 0.005 0.0005)
  (1.516275 0.005 0.0005)
  (1.516325 0.005 0.0005)
  (1.516375 0.005 0.0005)
  (1.516425 0.005 0.0005)
  (1.516475 0.005 0.0005)
  (1.516525 0.005 0.0005)
  (1.516575 0.005 0.0005)
  (1.516625 0.005 0.0005)
  (1.516675 0.005 0.0005)
  (1.516725 0.005 0.0005)
  (1.516775 0.005 0.0005)
  (1.516825 0.005 0.0005)
  (1.516875 0.005 0.0005)
  (1.516925 0.005 0.0005)
  (1.516975 0.005 0.0005)
  (1.517025 0.005 0.0005)
  (1.517075 0.005 0.0005)
  (1.517125 0.005 0.0005)
  (1.517175 0.005 0.0005)
  (1.517225 0.005 0.0005)
  (1.517275 0.005 0.0005)
  (1.517325 0.005 0.0005)
  (1.517375 0.005 0.0005)
  (1.517425 0.005 0.0005)
  (1.517475 0.005 0.0005)
  (1.517525 0.005 0.0005)
  (1.517575 0.005 0.0005)
  (1.517625 0.005 0.0005)
  (1.517675 0.005 0.0005)
  (1.517725 0.005 0.0005)
  (1.517775 0.005 0.0005)
  (1.517825 0.005 0.0005)
  (1.517875 0.005 0.0005)
  (1.517925 0.005 0.0005)
  (1.517975 0.005 0.0005)
  (1.518025 0.005 0.0005)
  (1.518075 0.005 0.0005)
  (1.518125 0.005 0.0005)
  (1.518175 0.005 0.0005)
  (1.518225 0.005 0.0005)
  (1.518275 0.005 0.0005)
  (1.518325 0.005 0.0005)
  (1.518375 0.005 0.0005)
  (1.518425 0.005 0.0005)
  (1.518475 0.005 0.0005)
  (1.518525 0.005 0.0005)
  (1.518575 0.005 0.0005)
  (1.518625 0.005 0.0005)
  (1.518675 0.005 0.0005)
  (1.518725 0.005 0.0005)
  (1.518775 0.005 0.0005)
  (1.518825 0.005 0.0005)
  (1.518875 0.005 0.0005)
  (1.518925 0.005 0.0005)
  (1.518975 0.005 0.0005)
  (1.519025 0.005 0.0005)
  (1.519075 0.005 0.0005)
  (1.519125 0.005 0.0005)
  (1.519175 0.005 0.0005)
  (1.519225 0.005 0.0005)
  (1.519275 0.005 0.0005)
  (1.519325 0.005 0.0005)
  (1.519375 0.005 0.0005)
  (1.519425 0.005 0.0005)
  (1.519475 0.005 0.0005)
  (1.519525 0.005 0.0005)
  (1.519575 0.005 0.0005)
  (1.519625 0.005 0.0005)
  (1.519675 0.005 0.0005)
  (1.519725 0.005 0.0005)
  (1.519775 0.005 0.0005)
  (1.519825 0.005 0.0005)
  (1.519875 0.005 0.0005)
  (1.519925 0.005 0.0005)
  (1.519975 0.005 0.0005)
  (1.520025 0.005 0.0005)
  (1.520075 0.005 0.0005)
  (1.520125 0.005 0.0005)
  (1.520175 0.005 0.0005)
  (1.520225 0.005 0.0005)
  (1.520275 0.005 0.0005)
  (1.520325 0.005 0.0005)
  (1.520375 0.005 0.0005)
  (1.520425 0.005 0.0005)
  (1.520475 0.005 0.0005)
  (1.520525 0.005 0.0005)
  (1.520575 0.005 0.0005)
  (1.520625 0.005 0.0005)
  (1.520675 0.005 0.0005)
  (1.520725 0.005 0.0005)
  (1.520775 0.005 0.0005)
  (1.520825 0.005 0.0005)
  (1.520875 0.005 0.0005)
  (1.520925 0.005 0.0005)
  (1.520975 0.005 0.0005)
  (1.521025 0.005 0.0005)
  (1.521075 0.005 0.0005)
  (1.521125 0.005 0.0005)
  (1.521175 0.005 0.0005)
  (1.521225 0.005 0.0005)
  (1.521275 0.005 0.0005)
  (1.521325 0.005 0.0005)
  (1.521375 0.005 0.0005)
  (1.521425 0.005 0.0005)
  (1.521475 0.005 0.0005)
  (1.521525 0.005 0.0005)
  (1.521575 0.005 0.0005)
  (1.521625 0.005 0.0005)
  (1.521675 0.005 0.0005)
  (1.521725 0.005 0.0005)
  (1.521775 0.005 0.0005)
  (1.521825 0.005 0.0005)
  (1.521875 0.005 0.0005)
  (1.521925 0.005 0.0005)
  (1.521975 0.005 0.0005)
  (1.522025 0.005 0.0005)
  (1.522075 0.005 0.0005)
  (1.522125 0.005 0.0005)
  (1.522175 0.005 0.0005)
  (1.522225 0.005 0.0005)
  (1.522275 0.005 0.0005)
  (1.522325 0.005 0.0005)
  (1.522375 0.005 0.0005)
  (1.522425 0.005 0.0005)
  (1.522475 0.005 0.0005)
  (1.522525 0.005 0.0005)
  (1.522575 0.005 0.0005)
  (1.522625 0.005 0.0005)
  (1.522675 0.005 0.0005)
  (1.522725 0.005 0.0005)
  (1.522775 0.005 0.0005)
  (1.522825 0.005 0.0005)
  (1.522875 0.005 0.0005)
  (1.522925 0.005 0.0005)
  (1.522975 0.005 0.0005)
  (1.523025 0.005 0.0005)
  (1.523075 0.005 0.0005)
  (1.523125 0.005 0.0005)
  (1.523175 0.005 0.0005)
  (1.523225 0.005 0.0005)
  (1.523275 0.005 0.0005)
  (1.523325 0.005 0.0005)
  (1.523375 0.005 0.0005)
  (1.523425 0.005 0.0005)
  (1.523475 0.005 0.0005)
  (1.523525 0.005 0.0005)
  (1.523575 0.005 0.0005)
  (1.523625 0.005 0.0005)
  (1.523675 0.005 0.0005)
  (1.523725 0.005 0.0005)
  (1.523775 0.005 0.0005)
  (1.523825 0.005 0.0005)
  (1.523875 0.005 0.0005)
  (1.523925 0.005 0.0005)
  (1.523975 0.005 0.0005)
  (1.524025 0.005 0.0005)
  (1.524075 0.005 0.0005)
  (1.524125 0.005 0.0005)
  (1.524175 0.005 0.0005)
  (1.524225 0.005 0.0005)
  (1.524275 0.005 0.0005)
  (1.524325 0.005 0.0005)
  (1.524375 0.005 0.0005)
  (1.524425 0.005 0.0005)
  (1.524475 0.005 0.0005)
  (1.524525 0.005 0.0005)
  (1.524575 0.005 0.0005)
  (1.524625 0.005 0.0005)
  (1.524675 0.005 0.0005)
  (1.524725 0.005 0.0005)
  (1.524775 0.005 0.0005)
  (1.524825 0.005 0.0005)
  (1.524875 0.005 0.0005)
  (1.524925 0.005 0.0005)
  (1.524975 0.005 0.0005)
  (1.525025 0.005 0.0005)
  (1.525075 0.005 0.0005)
  (1.525125 0.005 0.0005)
  (1.525175 0.005 0.0005)
  (1.525225 0.005 0.0005)
  (1.525275 0.005 0.0005)
  (1.525325 0.005 0.0005)
  (1.525375 0.005 0.0005)
  (1.525425 0.005 0.0005)
  (1.525475 0.005 0.0005)
  (1.525525 0.005 0.0005)
  (1.525575 0.005 0.0005)
  (1.525625 0.005 0.0005)
  (1.525675 0.005 0.0005)
  (1.525725 0.005 0.0005)
  (1.525775 0.005 0.0005)
  (1.525825 0.005 0.0005)
  (1.525875 0.005 0.0005)
  (1.525925 0.005 0.0005)
  (1.525975 0.005 0.0005)
  (1.526025 0.005 0.0005)
  (1.526075 0.005 0.0005)
  (1.526125 0.005 0.0005)
  (1.526175 0.005 0.0005)
  (1.526225 0.005 0.0005)
  (1.526275 0.005 0.0005)
  (1.526325 0.005 0.0005)
  (1.526375 0.005 0.0005)
  (1.526425 0.005 0.0005)
  (1.526475 0.005 0.0005)
  (1.526525 0.005 0.0005)
  (1.526575 0.005 0.0005)
  (1.526625 0.005 0.0005)
  (1.526675 0.005 0.0005)
  (1.526725 0.005 0.0005)
  (1.526775 0.005 0.0005)
  (1.526825 0.005 0.0005)
  (1.526875 0.005 0.0005)
  (1.526925 0.005 0.0005)
  (1.526975 0.005 0.0005)
  (1.527025 0.005 0.0005)
  (1.527075 0.005 0.0005)
  (1.527125 0.005 0.0005)
  (1.527175 0.005 0.0005)
  (1.527225 0.005 0.0005)
  (1.527275 0.005 0.0005)
  (1.527325 0.005 0.0005)
  (1.527375 0.005 0.0005)
  (1.527425 0.005 0.0005)
  (1.527475 0.005 0.0005)
  (1.527525 0.005 0.0005)
  (1.527575 0.005 0.0005)
  (1.527625 0.005 0.0005)
  (1.527675 0.005 0.0005)
  (1.527725 0.005 0.0005)
  (1.527775 0.005 0.0005)
  (1.527825 0.005 0.0005)
  (1.527875 0.005 0.0005)
  (1.527925 0.005 0.0005)
  (1.527975 0.005 0.0005)
  (1.528025 0.005 0.0005)
  (1.528075 0.005 0.0005)
  (1.528125 0.005 0.0005)
  (1.528175 0.005 0.0005)
  (1.528225 0.005 0.0005)
  (1.528275 0.005 0.0005)
  (1.528325 0.005 0.0005)
  (1.528375 0.005 0.0005)
  (1.528425 0.005 0.0005)
  (1.528475 0.005 0.0005)
  (1.528525 0.005 0.0005)
  (1.528575 0.005 0.0005)
  (1.528625 0.005 0.0005)
  (1.528675 0.005 0.0005)
  (1.528725 0.005 0.0005)
  (1.528775 0.005 0.0005)
  (1.528825 0.005 0.0005)
  (1.528875 0.005 0.0005)
  (1.528925 0.005 0.0005)
  (1.528975 0.005 0.0005)
  (1.529025 0.005 0.0005)
  (1.529075 0.005 0.0005)
  (1.529125 0.005 0.0005)
  (1.529175 0.005 0.0005)
  (1.529225 0.005 0.0005)
  (1.529275 0.005 0.0005)
  (1.529325 0.005 0.0005)
  (1.529375 0.005 0.0005)
  (1.529425 0.005 0.0005)
  (1.529475 0.005 0.0005)
  (1.529525 0.005 0.0005)
  (1.529575 0.005 0.0005)
  (1.529625 0.005 0.0005)
  (1.529675 0.005 0.0005)
  (1.529725 0.005 0.0005)
  (1.529775 0.005 0.0005)
  (1.529825 0.005 0.0005)
  (1.529875 0.005 0.0005)
  (1.529925 0.005 0.0005)
  (1.529975 0.005 0.0005)
  (1.530025 0.005 0.0005)
  (1.530075 0.005 0.0005)
  (1.530125 0.005 0.0005)
  (1.530175 0.005 0.0005)
  (1.530225 0.005 0.0005)
  (1.530275 0.005 0.0005)
  (1.530325 0.005 0.0005)
  (1.530375 0.005 0.0005)
  (1.530425 0.005 0.0005)
  (1.530475 0.005 0.0005)
  (1.530525 0.005 0.0005)
  (1.530575 0.005 0.0005)
  (1.530625 0.005 0.0005)
  (1.530675 0.005 0.0005)
  (1.530725 0.005 0.0005)
  (1.530775 0.005 0.0005)
  (1.530825 0.005 0.0005)
  (1.530875 0.005 0.0005)
  (1.530925 0.005 0.0005)
  (1.530975 0.005 0.0005)
  (1.531025 0.005 0.0005)
  (1.531075 0.005 0.0005)
  (1.531125 0.005 0.0005)
  (1.531175 0.005 0.0005)
  (1.531225 0.005 0.0005)
  (1.531275 0.005 0.0005)
  (1.531325 0.005 0.0005)
  (1.531375 0.005 0.0005)
  (1.531425 0.005 0.0005)
  (1.531475 0.005 0.0005)
  (1.531525 0.005 0.0005)
  (1.531575 0.005 0.0005)
  (1.531625 0.005 0.0005)
  (1.531675 0.005 0.0005)
  (1.531725 0.005 0.0005)
  (1.531775 0.005 0.0005)
  (1.531825 0.005 0.0005)
  (1.531875 0.005 0.0005)
  (1.531925 0.005 0.0005)
  (1.531975 0.005 0.0005)
  (1.532025 0.005 0.0005)
  (1.532075 0.005 0.0005)
  (1.532125 0.005 0.0005)
  (1.532175 0.005 0.0005)
  (1.532225 0.005 0.0005)
  (1.532275 0.005 0.0005)
  (1.532325 0.005 0.0005)
  (1.532375 0.005 0.0005)
  (1.532425 0.005 0.0005)
  (1.532475 0.005 0.0005)
  (1.532525 0.005 0.0005)
  (1.532575 0.005 0.0005)
  (1.532625 0.005 0.0005)
  (1.532675 0.005 0.0005)
  (1.532725 0.005 0.0005)
  (1.532775 0.005 0.0005)
  (1.532825 0.005 0.0005)
  (1.532875 0.005 0.0005)
  (1.532925 0.005 0.0005)
  (1.532975 0.005 0.0005)
  (1.533025 0.005 0.0005)
  (1.533075 0.005 0.0005)
  (1.533125 0.005 0.0005)
  (1.533175 0.005 0.0005)
  (1.533225 0.005 0.0005)
  (1.533275 0.005 0.0005)
  (1.533325 0.005 0.0005)
  (1.533375 0.005 0.0005)
  (1.533425 0.005 0.0005)
  (1.533475 0.005 0.0005)
  (1.533525 0.005 0.0005)
  (1.533575 0.005 0.0005)
  (1.533625 0.005 0.0005)
  (1.533675 0.005 0.0005)
  (1.533725 0.005 0.0005)
  (1.533775 0.005 0.0005)
  (1.533825 0.005 0.0005)
  (1.533875 0.005 0.0005)
  (1.533925 0.005 0.0005)
  (1.533975 0.005 0.0005)
  (1.534025 0.005 0.0005)
  (1.534075 0.005 0.0005)
  (1.534125 0.005 0.0005)
  (1.534175 0.005 0.0005)
  (1.534225 0.005 0.0005)
  (1.534275 0.005 0.0005)
  (1.534325 0.005 0.0005)
  (1.534375 0.005 0.0005)
  (1.534425 0.005 0.0005)
  (1.534475 0.005 0.0005)
  (1.534525 0.005 0.0005)
  (1.534575 0.005 0.0005)
  (1.534625 0.005 0.0005)
  (1.534675 0.005 0.0005)
  (1.534725 0.005 0.0005)
  (1.534775 0.005 0.0005)
  (1.534825 0.005 0.0005)
  (1.534875 0.005 0.0005)
  (1.534925 0.005 0.0005)
  (1.534975 0.005 0.0005)
  (1.535025 0.005 0.0005)
  (1.535075 0.005 0.0005)
  (1.535125 0.005 0.0005)
  (1.535175 0.005 0.0005)
  (1.535225 0.005 0.0005)
  (1.535275 0.005 0.0005)
  (1.535325 0.005 0.0005)
  (1.535375 0.005 0.0005)
  (1.535425 0.005 0.0005)
  (1.535475 0.005 0.0005)
  (1.535525 0.005 0.0005)
  (1.535575 0.005 0.0005)
  (1.535625 0.005 0.0005)
  (1.535675 0.005 0.0005)
  (1.535725 0.005 0.0005)
  (1.535775 0.005 0.0005)
  (1.535825 0.005 0.0005)
  (1.535875 0.005 0.0005)
  (1.535925 0.005 0.0005)
  (1.535975 0.005 0.0005)
  (1.536025 0.005 0.0005)
  (1.536075 0.005 0.0005)
  (1.536125 0.005 0.0005)
  (1.536175 0.005 0.0005)
  (1.536225 0.005 0.0005)
  (1.536275 0.005 0.0005)
  (1.536325 0.005 0.0005)
  (1.536375 0.005 0.0005)
  (1.536425 0.005 0.0005)
  (1.536475 0.005 0.0005)
  (1.536525 0.005 0.0005)
  (1.536575 0.005 0.0005)
  (1.536625 0.005 0.0005)
  (1.536675 0.005 0.0005)
  (1.536725 0.005 0.0005)
  (1.536775 0.005 0.0005)
  (1.536825 0.005 0.0005)
  (1.536875 0.005 0.0005)
  (1.536925 0.005 0.0005)
  (1.536975 0.005 0.0005)
  (1.537025 0.005 0.0005)
  (1.537075 0.005 0.0005)
  (1.537125 0.005 0.0005)
  (1.537175 0.005 0.0005)
  (1.537225 0.005 0.0005)
  (1.537275 0.005 0.0005)
  (1.537325 0.005 0.0005)
  (1.537375 0.005 0.0005)
  (1.537425 0.005 0.0005)
  (1.537475 0.005 0.0005)
  (1.537525 0.005 0.0005)
  (1.537575 0.005 0.0005)
  (1.537625 0.005 0.0005)
  (1.537675 0.005 0.0005)
  (1.537725 0.005 0.0005)
  (1.537775 0.005 0.0005)
  (1.537825 0.005 0.0005)
  (1.537875 0.005 0.0005)
  (1.537925 0.005 0.0005)
  (1.537975 0.005 0.0005)
  (1.538025 0.005 0.0005)
  (1.538075 0.005 0.0005)
  (1.538125 0.005 0.0005)
  (1.538175 0.005 0.0005)
  (1.538225 0.005 0.0005)
  (1.538275 0.005 0.0005)
  (1.538325 0.005 0.0005)
  (1.538375 0.005 0.0005)
  (1.538425 0.005 0.0005)
  (1.538475 0.005 0.0005)
  (1.538525 0.005 0.0005)
  (1.538575 0.005 0.0005)
  (1.538625 0.005 0.0005)
  (1.538675 0.005 0.0005)
  (1.538725 0.005 0.0005)
  (1.538775 0.005 0.0005)
  (1.538825 0.005 0.0005)
  (1.538875 0.005 0.0005)
  (1.538925 0.005 0.0005)
  (1.538975 0.005 0.0005)
  (1.539025 0.005 0.0005)
  (1.539075 0.005 0.0005)
  (1.539125 0.005 0.0005)
  (1.539175 0.005 0.0005)
  (1.539225 0.005 0.0005)
  (1.539275 0.005 0.0005)
  (1.539325 0.005 0.0005)
  (1.539375 0.005 0.0005)
  (1.539425 0.005 0.0005)
  (1.539475 0.005 0.0005)
  (1.539525 0.005 0.0005)
  (1.539575 0.005 0.0005)
  (1.539625 0.005 0.0005)
  (1.539675 0.005 0.0005)
  (1.539725 0.005 0.0005)
  (1.539775 0.005 0.0005)
  (1.539825 0.005 0.0005)
  (1.539875 0.005 0.0005)
  (1.539925 0.005 0.0005)
  (1.539975 0.005 0.0005)
  (1.540025 0.005 0.0005)
  (1.540075 0.005 0.0005)
  (1.540125 0.005 0.0005)
  (1.540175 0.005 0.0005)
  (1.540225 0.005 0.0005)
  (1.540275 0.005 0.0005)
  (1.540325 0.005 0.0005)
  (1.540375 0.005 0.0005)
  (1.540425 0.005 0.0005)
  (1.540475 0.005 0.0005)
  (1.540525 0.005 0.0005)
  (1.540575 0.005 0.0005)
  (1.540625 0.005 0.0005)
  (1.540675 0.005 0.0005)
  (1.540725 0.005 0.0005)
  (1.540775 0.005 0.0005)
  (1.540825 0.005 0.0005)
  (1.540875 0.005 0.0005)
  (1.540925 0.005 0.0005)
  (1.540975 0.005 0.0005)
  (1.541025 0.005 0.0005)
  (1.541075 0.005 0.0005)
  (1.541125 0.005 0.0005)
  (1.541175 0.005 0.0005)
  (1.541225 0.005 0.0005)
  (1.541275 0.005 0.0005)
  (1.541325 0.005 0.0005)
  (1.541375 0.005 0.0005)
  (1.541425 0.005 0.0005)
  (1.541475 0.005 0.0005)
  (1.541525 0.005 0.0005)
  (1.541575 0.005 0.0005)
  (1.541625 0.005 0.0005)
  (1.541675 0.005 0.0005)
  (1.541725 0.005 0.0005)
  (1.541775 0.005 0.0005)
  (1.541825 0.005 0.0005)
  (1.541875 0.005 0.0005)
  (1.541925 0.005 0.0005)
  (1.541975 0.005 0.0005)
  (1.542025 0.005 0.0005)
  (1.542075 0.005 0.0005)
  (1.542125 0.005 0.0005)
  (1.542175 0.005 0.0005)
  (1.542225 0.005 0.0005)
  (1.542275 0.005 0.0005)
  (1.542325 0.005 0.0005)
  (1.542375 0.005 0.0005)
  (1.542425 0.005 0.0005)
  (1.542475 0.005 0.0005)
  (1.542525 0.005 0.0005)
  (1.542575 0.005 0.0005)
  (1.542625 0.005 0.0005)
  (1.542675 0.005 0.0005)
  (1.542725 0.005 0.0005)
  (1.542775 0.005 0.0005)
  (1.542825 0.005 0.0005)
  (1.542875 0.005 0.0005)
  (1.542925 0.005 0.0005)
  (1.542975 0.005 0.0005)
  (1.543025 0.005 0.0005)
  (1.543075 0.005 0.0005)
  (1.543125 0.005 0.0005)
  (1.543175 0.005 0.0005)
  (1.543225 0.005 0.0005)
  (1.543275 0.005 0.0005)
  (1.543325 0.005 0.0005)
  (1.543375 0.005 0.0005)
  (1.543425 0.005 0.0005)
  (1.543475 0.005 0.0005)
  (1.543525 0.005 0.0005)
  (1.543575 0.005 0.0005)
  (1.543625 0.005 0.0005)
  (1.543675 0.005 0.0005)
  (1.543725 0.005 0.0005)
  (1.543775 0.005 0.0005)
  (1.543825 0.005 0.0005)
  (1.543875 0.005 0.0005)
  (1.543925 0.005 0.0005)
  (1.543975 0.005 0.0005)
  (1.544025 0.005 0.0005)
  (1.544075 0.005 0.0005)
  (1.544125 0.005 0.0005)
  (1.544175 0.005 0.0005)
  (1.544225 0.005 0.0005)
  (1.544275 0.005 0.0005)
  (1.544325 0.005 0.0005)
  (1.544375 0.005 0.0005)
  (1.544425 0.005 0.0005)
  (1.544475 0.005 0.0005)
  (1.544525 0.005 0.0005)
  (1.544575 0.005 0.0005)
  (1.544625 0.005 0.0005)
  (1.544675 0.005 0.0005)
  (1.544725 0.005 0.0005)
  (1.544775 0.005 0.0005)
  (1.544825 0.005 0.0005)
  (1.544875 0.005 0.0005)
  (1.544925 0.005 0.0005)
  (1.544975 0.005 0.0005)
  (1.545025 0.005 0.0005)
  (1.545075 0.005 0.0005)
  (1.545125 0.005 0.0005)
  (1.545175 0.005 0.0005)
  (1.545225 0.005 0.0005)
  (1.545275 0.005 0.0005)
  (1.545325 0.005 0.0005)
  (1.545375 0.005 0.0005)
  (1.545425 0.005 0.0005)
  (1.545475 0.005 0.0005)
  (1.545525 0.005 0.0005)
  (1.545575 0.005 0.0005)
  (1.545625 0.005 0.0005)
  (1.545675 0.005 0.0005)
  (1.545725 0.005 0.0005)
  (1.545775 0.005 0.0005)
  (1.545825 0.005 0.0005)
  (1.545875 0.005 0.0005)
  (1.545925 0.005 0.0005)
  (1.545975 0.005 0.0005)
  (1.546025 0.005 0.0005)
  (1.546075 0.005 0.0005)
  (1.546125 0.005 0.0005)
  (1.546175 0.005 0.0005)
  (1.546225 0.005 0.0005)
  (1.546275 0.005 0.0005)
  (1.546325 0.005 0.0005)
  (1.546375 0.005 0.0005)
  (1.546425 0.005 0.0005)
  (1.546475 0.005 0.0005)
  (1.546525 0.005 0.0005)
  (1.546575 0.005 0.0005)
  (1.546625 0.005 0.0005)
  (1.546675 0.005 0.0005)
  (1.546725 0.005 0.0005)
  (1.546775 0.005 0.0005)
  (1.546825 0.005 0.0005)
  (1.546875 0.005 0.0005)
  (1.546925 0.005 0.0005)
  (1.546975 0.005 0.0005)
  (1.547025 0.005 0.0005)
  (1.547075 0.005 0.0005)
  (1.547125 0.005 0.0005)
  (1.547175 0.005 0.0005)
  (1.547225 0.005 0.0005)
  (1.547275 0.005 0.0005)
  (1.547325 0.005 0.0005)
  (1.547375 0.005 0.0005)
  (1.547425 0.005 0.0005)
  (1.547475 0.005 0.0005)
  (1.547525 0.005 0.0005)
  (1.547575 0.005 0.0005)
  (1.547625 0.005 0.0005)
  (1.547675 0.005 0.0005)
  (1.547725 0.005 0.0005)
  (1.547775 0.005 0.0005)
  (1.547825 0.005 0.0005)
  (1.547875 0.005 0.0005)
  (1.547925 0.005 0.0005)
  (1.547975 0.005 0.0005)
  (1.548025 0.005 0.0005)
  (1.548075 0.005 0.0005)
  (1.548125 0.005 0.0005)
  (1.548175 0.005 0.0005)
  (1.548225 0.005 0.0005)
  (1.548275 0.005 0.0005)
  (1.548325 0.005 0.0005)
  (1.548375 0.005 0.0005)
  (1.548425 0.005 0.0005)
  (1.548475 0.005 0.0005)
  (1.548525 0.005 0.0005)
  (1.548575 0.005 0.0005)
  (1.548625 0.005 0.0005)
  (1.548675 0.005 0.0005)
  (1.548725 0.005 0.0005)
  (1.548775 0.005 0.0005)
  (1.548825 0.005 0.0005)
  (1.548875 0.005 0.0005)
  (1.548925 0.005 0.0005)
  (1.548975 0.005 0.0005)
  (1.549025 0.005 0.0005)
  (1.549075 0.005 0.0005)
  (1.549125 0.005 0.0005)
  (1.549175 0.005 0.0005)
  (1.549225 0.005 0.0005)
  (1.549275 0.005 0.0005)
  (1.549325 0.005 0.0005)
  (1.549375 0.005 0.0005)
  (1.549425 0.005 0.0005)
  (1.549475 0.005 0.0005)
  (1.549525 0.005 0.0005)
  (1.549575 0.005 0.0005)
  (1.549625 0.005 0.0005)
  (1.549675 0.005 0.0005)
  (1.549725 0.005 0.0005)
  (1.549775 0.005 0.0005)
  (1.549825 0.005 0.0005)
  (1.549875 0.005 0.0005)
  (1.549925 0.005 0.0005)
  (1.549975 0.005 0.0005)
  (1.550025 0.005 0.0005)
  (1.550075 0.005 0.0005)
  (1.550125 0.005 0.0005)
  (1.550175 0.005 0.0005)
  (1.550225 0.005 0.0005)
  (1.550275 0.005 0.0005)
  (1.550325 0.005 0.0005)
  (1.550375 0.005 0.0005)
  (1.550425 0.005 0.0005)
  (1.550475 0.005 0.0005)
  (1.550525 0.005 0.0005)
  (1.550575 0.005 0.0005)
  (1.550625 0.005 0.0005)
  (1.550675 0.005 0.0005)
  (1.550725 0.005 0.0005)
  (1.550775 0.005 0.0005)
  (1.550825 0.005 0.0005)
  (1.550875 0.005 0.0005)
  (1.550925 0.005 0.0005)
  (1.550975 0.005 0.0005)
  (1.551025 0.005 0.0005)
  (1.551075 0.005 0.0005)
  (1.551125 0.005 0.0005)
  (1.551175 0.005 0.0005)
  (1.551225 0.005 0.0005)
  (1.551275 0.005 0.0005)
  (1.551325 0.005 0.0005)
  (1.551375 0.005 0.0005)
  (1.551425 0.005 0.0005)
  (1.551475 0.005 0.0005)
  (1.551525 0.005 0.0005)
  (1.551575 0.005 0.0005)
  (1.551625 0.005 0.0005)
  (1.551675 0.005 0.0005)
  (1.551725 0.005 0.0005)
  (1.551775 0.005 0.0005)
  (1.551825 0.005 0.0005)
  (1.551875 0.005 0.0005)
  (1.551925 0.005 0.0005)
  (1.551975 0.005 0.0005)
  (1.552025 0.005 0.0005)
  (1.552075 0.005 0.0005)
  (1.552125 0.005 0.0005)
  (1.552175 0.005 0.0005)
  (1.552225 0.005 0.0005)
  (1.552275 0.005 0.0005)
  (1.552325 0.005 0.0005)
  (1.552375 0.005 0.0005)
  (1.552425 0.005 0.0005)
  (1.552475 0.005 0.0005)
  (1.552525 0.005 0.0005)
  (1.552575 0.005 0.0005)
  (1.552625 0.005 0.0005)
  (1.552675 0.005 0.0005)
  (1.552725 0.005 0.0005)
  (1.552775 0.005 0.0005)
  (1.552825 0.005 0.0005)
  (1.552875 0.005 0.0005)
  (1.552925 0.005 0.0005)
  (1.552975 0.005 0.0005)
  (1.553025 0.005 0.0005)
  (1.553075 0.005 0.0005)
  (1.553125 0.005 0.0005)
  (1.553175 0.005 0.0005)
  (1.553225 0.005 0.0005)
  (1.553275 0.005 0.0005)
  (1.553325 0.005 0.0005)
  (1.553375 0.005 0.0005)
  (1.553425 0.005 0.0005)
  (1.553475 0.005 0.0005)
  (1.553525 0.005 0.0005)
  (1.553575 0.005 0.0005)
  (1.553625 0.005 0.0005)
  (1.553675 0.005 0.0005)
  (1.553725 0.005 0.0005)
  (1.553775 0.005 0.0005)
  (1.553825 0.005 0.0005)
  (1.553875 0.005 0.0005)
  (1.553925 0.005 0.0005)
  (1.553975 0.005 0.0005)
  (1.554025 0.005 0.0005)
  (1.554075 0.005 0.0005)
  (1.554125 0.005 0.0005)
  (1.554175 0.005 0.0005)
  (1.554225 0.005 0.0005)
  (1.554275 0.005 0.0005)
  (1.554325 0.005 0.0005)
  (1.554375 0.005 0.0005)
  (1.554425 0.005 0.0005)
  (1.554475 0.005 0.0005)
  (1.554525 0.005 0.0005)
  (1.554575 0.005 0.0005)
  (1.554625 0.005 0.0005)
  (1.554675 0.005 0.0005)
  (1.554725 0.005 0.0005)
  (1.554775 0.005 0.0005)
  (1.554825 0.005 0.0005)
  (1.554875 0.005 0.0005)
  (1.554925 0.005 0.0005)
  (1.554975 0.005 0.0005)
  (1.555025 0.005 0.0005)
  (1.555075 0.005 0.0005)
  (1.555125 0.005 0.0005)
  (1.555175 0.005 0.0005)
  (1.555225 0.005 0.0005)
  (1.555275 0.005 0.0005)
  (1.555325 0.005 0.0005)
  (1.555375 0.005 0.0005)
  (1.555425 0.005 0.0005)
  (1.555475 0.005 0.0005)
  (1.555525 0.005 0.0005)
  (1.555575 0.005 0.0005)
  (1.555625 0.005 0.0005)
  (1.555675 0.005 0.0005)
  (1.555725 0.005 0.0005)
  (1.555775 0.005 0.0005)
  (1.555825 0.005 0.0005)
  (1.555875 0.005 0.0005)
  (1.555925 0.005 0.0005)
  (1.555975 0.005 0.0005)
  (1.556025 0.005 0.0005)
  (1.556075 0.005 0.0005)
  (1.556125 0.005 0.0005)
  (1.556175 0.005 0.0005)
  (1.556225 0.005 0.0005)
  (1.556275 0.005 0.0005)
  (1.556325 0.005 0.0005)
  (1.556375 0.005 0.0005)
  (1.556425 0.005 0.0005)