/*--------------------------------*- C++ -*----------------------------------*\
  =========                 |
  \\      /  F ield         | OpenFOAM: The Open Source CFD Toolbox
   \\    /   O peration     | Website:  https://openfoam.org
    \\  /    A nd           | Version:  7
     \\/     M anipulation  |
\*---------------------------------------------------------------------------*/
FoamFile
{
    version         2;
    format          ascii;
    class           dictionary;
    location        "constant";
    object          CanteraTorchProperties;
}

chemistry       off;

CanteraMechanismFile "grimech30.yaml";

transportModel  "UnityLewis";

odeCoeffs
{
    "relTol"        1e-06;
    "absTol"        1e-10;
}

inertSpecie     "N2";

zeroDReactor
{
}

loadbalancing
{
    active          true;
}


// ************************************************************************* //
