/*--------------------------------*- C++ -*----------------------------------*\
  =========                 |
  \\      /  F ield         | OpenFOAM: The Open Source CFD Toolbox
   \\    /   O peration     | Website:  https://openfoam.org
    \\  /    A nd           | Version:  7
     \\/     M anipulation  |
\*---------------------------------------------------------------------------*/
FoamFile
{
    version     2.0;
    format      ascii;
    class       dictionary;
    location    "constant";
    object      combustionProperties;
}
// * * * * * * * * * * * * * * * * * * * * * * * * * * * * * * * * * * * * * //

combustionModel   PaSR;//EDC; PaSR

EDCCoeffs
{
    version v2005;
}

PaSRCoeffs
{
   mixingScale
   {
      type   globalScale;//globalScale,kolmogorovScale,geometriMeanScale,dynamicScale 
      
      globalScaleCoeffs
      {
	      Cmix  0.01;
      } 

      dynamicScaleCoeffs
      {
        ChiType      algebraic;//algebraic; transport
      }	     

   }

   chemistryScale
   {
      type  globalConvertion;//formationRate,globalConvertion

      globalConvertionCoeffs
      {
	      fuel CH4;
	      oxidizer O2;
      }

   }

}

// ************************************************************************* //
