/*--------------------------------*- C++ -*----------------------------------*\
  =========                 |
  \\      /  F ield         | OpenFOAM: The Open Source CFD Toolbox
   \\    /   O peration     | Website:  https://openfoam.org
    \\  /    A nd           | Version:  7
     \\/     M anipulation  |
\*---------------------------------------------------------------------------*/
FoamFile
{
    version     2.0;
    format      ascii;
    class       dictionary;
    location    "system";
    object      setFieldsDict;
}
// * * * * * * * * * * * * * * * * * * * * * * * * * * * * * * * * * * * * * //


defaultFieldValues
(
    volScalarFieldValue T        2458.6
    volScalarFieldValue H        0.000053
    volScalarFieldValue O2       0.01511
    volScalarFieldValue OH       0.004558
    volScalarFieldValue O        0.00077
    volScalarFieldValue H2       0.000356
    volScalarFieldValue H2O      0.075807
    volScalarFieldValue HO2      0.000002
    volScalarFieldValue CO       0.025874
    volScalarFieldValue CO2      0.159367
    volScalarFieldValue HCO      0.0
    volScalarFieldValue CH3      0.0
    volScalarFieldValue CH4      0.0
    volScalarFieldValue CH2O     0.0
    volScalarFieldValue T-CH2    0.0
    volScalarFieldValue S-CH2    0.0
    volScalarFieldValue C2H4     0.0
    volScalarFieldValue C2H5     0.0
    volScalarFieldValue C2H2     0.0
    volScalarFieldValue C2H3     0.0
    volScalarFieldValue CH2CHO   0.0
    volScalarFieldValue HCCO     0.0
    volScalarFieldValue CH2CO    0.0
    volScalarFieldValue CH2OH    0.0
    volScalarFieldValue N2       0.718103
);

regions
(
    boxToCell
    {
        box (0 0.0075 -0.0005) (0.016 0.0085 0.0005);
        fieldValues
        (
            volScalarFieldValue T        500
            volScalarFieldValue H        0.0
            volScalarFieldValue O2       0.218145
            volScalarFieldValue OH       0.0
            volScalarFieldValue O        0.0
            volScalarFieldValue H2       0.0
            volScalarFieldValue H2O      0.0
            volScalarFieldValue HO2      0.0
            volScalarFieldValue CO       0.0
            volScalarFieldValue CO2      0.0
            volScalarFieldValue HCO      0.0
            volScalarFieldValue CH3      0.0
            volScalarFieldValue CH4      0.0
            volScalarFieldValue CH2O     0.0
            volScalarFieldValue T-CH2    0.0
            volScalarFieldValue S-CH2    0.0
            volScalarFieldValue C2H4     0.063752
            volScalarFieldValue C2H5     0.0
            volScalarFieldValue C2H2     0.0
            volScalarFieldValue C2H3     0.0
            volScalarFieldValue CH2CHO   0.0
            volScalarFieldValue HCCO     0.0
            volScalarFieldValue CH2CO    0.0
            volScalarFieldValue CH2OH    0.0
            volScalarFieldValue N2       0.718103
            
        );
    }
);
// ************************************************************************* //
