/*--------------------------------*- C++ -*----------------------------------*\
  =========                 |
  \\      /  F ield         | OpenFOAM: The Open Source CFD Toolbox
   \\    /   O peration     | Website:  https://openfoam.org
    \\  /    A nd           | Version:  7
     \\/     M anipulation  |
\*---------------------------------------------------------------------------*/
FoamFile
{
    version          2.0;
    format           ascii;
    class            dictionary;
    location         "constant";
    object           CanteraTorchProperties;
}
// * * * * * * * * * * * * * * * * * * * * * * * * * * * * * * * * * * * * * //

chemistry            on;

CanteraMechanismFile "2s_CH4_BFER_N2.yaml";

transportModel       "Chung";

odeCoeffs
{
    "relTol"         1e-6;
    "absTol"         1e-10;
}

inertSpecie          "N2";

splittingStrategy    off;

TorchSettings
{
    torch            off;
}

loadbalancing
{
    active           true;
    log              false;
    algorithm        allAverage;//headTail;
}


// ************************************************************************* //
